<?xml version="1.0" encoding="UTF-8"?>

<!-- generated on 2023-11-15 14:45:18 by Eclipse SUMO netedit Version 1.18.0
-->

<routes xmlns:xsi="http://www.w3.org/2001/XMLSchema-instance" xsi:noNamespaceSchemaLocation="http://sumo.dlr.de/xsd/routes_file.xsd">
    <!-- Routes -->
    <route id="br_tl" edges="-E11 E8 -E3 E10" color="cyan"/>
    <route id="tr_bl" edges="E0 -E4 -E5 -E6" color="cyan"/>

    <vType id="typeWE" accel="0.8" decel="4.5" sigma="0.5" length="5" minGap="2.5" maxSpeed="16.67" guiShape="passenger"/>
    