<?xml version="1.0" encoding="UTF-8"?>

<!-- generated on 2023-11-15 15:46:23 by Eclipse SUMO netedit Version 1.18.0
<configuration xmlns:xsi="http://www.w3.org/2001/XMLSchema-instance" xsi:noNamespaceSchemaLocation="http://sumo.dlr.de/xsd/neteditConfiguration.xsd">

    <input>
        <route-files value="/Users/cianmurphy/code_directories/final_year_project/Experiments/Exp4/exp4.rou.xml"/>
        <sumo-net-file value="/Users/cianmurphy/code_directories/final_year_project/Experiments/Exp4/exp4.net.xml"/>
    </input>

    <output>
        <output-file value="/Users/cianmurphy/code_directories/final_year_project/Experiments/Exp4/exp4.net.xml"/>
    </output>

    <processing>
        <offset.disable-normalization value="true"/>
    </processing>

    <junctions>
        <no-turnarounds value="true"/>
    </junctions>

    <netedit>
        <new-network value="false"/>
    </netedit>

</configuration>
-->

<net version="1.16" junctionCornerDetail="5" limitTurnSpeed="5.50" xmlns:xsi="http://www.w3.org/2001/XMLSchema-instance" xsi:noNamespaceSchemaLocation="http://sumo.dlr.de/xsd/net_file.xsd">

    <location netOffset="0.00,0.00" convBoundary="-20.40,-58.77,245.46,73.47" origBoundary="10000000000.00,10000000000.00,-10000000000.00,-10000000000.00" projParameter="!"/>

    <edge id=":J1_0" function="internal">
        <lane id=":J1_0_0" index="0" speed="13.89" length="20.00" shape="42.47,71.48 22.47,71.44"/>
    </edge>
    <edge id=":J1_1" function="internal">
        <lane id=":J1_1_0" index="0" speed="9.75" length="5.85" shape="42.47,71.48 36.67,70.76"/>
    </edge>
    <edge id=":J1_2" function="internal">
        <lane id=":J1_2_0" index="0" speed="7.50" length="6.59" shape="42.47,71.48 35.91,70.81"/>
    </edge>
    <edge id=":J1_12" function="internal">
        <lane id=":J1_12_0" index="0" speed="9.75" length="15.86" shape="36.67,70.76 36.18,70.70 31.69,68.35 29.02,64.43 28.16,58.94"/>
    </edge>
    <edge id=":J1_13" function="internal">
        <lane id=":J1_13_0" index="0" speed="7.50" length="14.00" shape="35.91,70.81 35.77,70.80 32.87,68.73 33.76,65.27 38.44,60.44"/>
    </edge>
    <edge id=":J1_3" function="internal">
        <lane id=":J1_3_0" index="0" speed="5.46" length="10.06" shape="40.50,62.88 38.21,65.25 37.78,66.93 39.20,67.95 42.47,68.28"/>
    </edge>
    <edge id=":J1_4" function="internal">
        <lane id=":J1_4_0" index="0" speed="13.89" length="20.19" shape="40.50,62.88 36.77,65.58 31.92,68.38 26.86,70.57 22.47,71.44"/>
    </edge>
    <edge id=":J1_5" function="internal">
        <lane id=":J1_5_0" index="0" speed="7.61" length="19.60" shape="40.50,62.88 35.06,66.56 31.19,67.13 28.89,64.59 28.16,58.94"/>
    </edge>
    <edge id=":J1_6" function="internal">
        <lane id=":J1_6_0" index="0" speed="5.81" length="10.77" shape="31.36,58.96 31.78,61.86 33.10,63.07 35.32,62.59 38.44,60.44"/>
    </edge>
    <edge id=":J1_7" function="internal">
        <lane id=":J1_7_0" index="0" speed="8.57" length="16.52" shape="31.36,58.96 32.03,63.04 34.10,65.96 37.58,67.70 42.47,68.28"/>
    </edge>
    <edge id=":J1_8" function="internal">
        <lane id=":J1_8_0" index="0" speed="8.78" length="17.31" shape="31.36,58.96 30.77,64.44 29.09,68.35 26.32,70.68 22.47,71.44"/>
    </edge>
    <edge id=":J1_9" function="internal">
        <lane id=":J1_9_0" index="0" speed="7.46" length="12.20" shape="22.49,68.24 24.95,67.67 26.71,65.93 27.78,63.02 28.16,58.94"/>
    </edge>
    <edge id=":J1_10" function="internal">
        <lane id=":J1_10_0" index="0" speed="13.89" length="18.01" shape="22.49,68.24 26.56,67.49 30.91,65.56 35.04,63.02 38.44,60.44"/>
    </edge>
    <edge id=":J1_11" function="internal">
        <lane id=":J1_11_0" index="0" speed="13.89" length="19.98" shape="22.49,68.24 42.47,68.28"/>
    </edge>
    <edge id=":J2_0" function="internal">
        <lane id=":J2_0_0" index="0" speed="13.89" length="19.53" shape="186.03,71.81 166.50,71.39"/>
    </edge>
    <edge id=":J2_1" function="internal">
        <lane id=":J2_1_0" index="0" speed="13.89" length="3.22" shape="186.03,71.81 182.90,71.03"/>
    </edge>
    <edge id=":J2_2" function="internal">
        <lane id=":J2_2_0" index="0" speed="8.98" length="3.00" shape="186.03,71.81 183.13,71.03"/>
    </edge>
    <edge id=":J2_12" function="internal">
        <lane id=":J2_12_0" index="0" speed="13.89" length="16.70" shape="182.90,71.03 181.72,70.73 176.81,68.39 172.14,65.51 168.50,62.77"/>
    </edge>
    <edge id=":J2_13" function="internal">
        <lane id=":J2_13_0" index="0" speed="8.98" length="14.30" shape="183.13,71.03 182.31,70.80 179.66,68.30 178.07,64.31 177.54,58.83"/>
    </edge>
    <edge id=":J2_3" function="internal">
        <lane id=":J2_3_0" index="0" speed="7.69" length="12.41" shape="180.74,58.83 181.08,62.98 182.11,66.00 183.82,67.88 186.23,68.62"/>
    </edge>
    <edge id=":J2_4" function="internal">
        <lane id=":J2_4_0" index="0" speed="9.77" length="21.62" shape="180.74,58.83 179.85,64.32 177.17,68.24 172.72,70.60 166.50,71.39"/>
    </edge>
    <edge id=":J2_5" function="internal">
        <lane id=":J2_5_0" index="0" speed="7.59" length="19.50" shape="180.74,58.83 179.97,64.49 177.67,67.03 173.85,66.46 168.50,62.77"/>
    </edge>
    <edge id=":J2_6" function="internal">
        <lane id=":J2_6_0" index="0" speed="5.78" length="10.66" shape="170.58,60.34 173.62,62.48 175.80,62.94 177.10,61.72 177.54,58.83"/>
    </edge>
    <edge id=":J2_7" function="internal">
        <lane id=":J2_7_0" index="0" speed="13.89" length="17.92" shape="170.58,60.34 173.93,62.96 177.96,65.58 182.21,67.65 186.23,68.62"/>
    </edge>
    <edge id=":J2_8" function="internal">
        <lane id=":J2_8_0" index="0" speed="7.49" length="20.40" shape="170.58,60.34 175.15,65.17 175.99,68.62 173.11,70.69 166.50,71.39"/>
    </edge>
    <edge id=":J2_9" function="internal">
        <lane id=":J2_9_0" index="0" speed="5.46" length="10.01" shape="166.49,68.19 169.74,67.85 171.15,66.83 170.74,65.14 168.50,62.77"/>
    </edge>
    <edge id=":J2_10" function="internal">
        <lane id=":J2_10_0" index="0" speed="8.59" length="16.47" shape="166.49,68.19 171.32,67.60 174.77,65.84 176.85,62.92 177.54,58.83"/>
    </edge>
    <edge id=":J2_11" function="internal">
        <lane id=":J2_11_0" index="0" speed="13.89" length="19.74" shape="166.49,68.19 186.23,68.62"/>
    </edge>
    <edge id=":J3_0" function="internal">
        <lane id=":J3_0_0" index="0" speed="5.94" length="11.08" shape="177.65,-40.83 177.18,-43.64 175.75,-44.80 173.37,-44.31 170.04,-42.17"/>
    </edge>
    <edge id=":J3_1" function="internal">
        <lane id=":J3_1_0" index="0" speed="8.68" length="16.59" shape="177.65,-40.83 176.94,-44.78 174.81,-47.65 171.26,-49.42 166.28,-50.11"/>
    </edge>
    <edge id=":J3_2" function="internal">
        <lane id=":J3_2_0" index="0" speed="8.67" length="17.00" shape="177.65,-40.83 178.21,-46.15 179.87,-49.94 182.64,-52.18 186.52,-52.89"/>
    </edge>
    <edge id=":J3_3" function="internal">
        <lane id=":J3_3_0" index="0" speed="7.32" length="11.83" shape="186.48,-49.69 184.02,-49.17 182.26,-47.51 181.20,-44.73 180.85,-40.82"/>
    </edge>
    <edge id=":J3_4" function="internal">
        <lane id=":J3_4_0" index="0" speed="13.89" length="18.31" shape="186.48,-49.69 182.35,-48.98 177.86,-47.11 173.57,-44.65 170.04,-42.17"/>
    </edge>
    <edge id=":J3_5" function="internal">
        <lane id=":J3_5_0" index="0" speed="13.89" length="20.20" shape="186.48,-49.69 166.28,-50.11"/>
    </edge>
    <edge id=":J3_6" function="internal">
        <lane id=":J3_6_0" index="0" speed="13.89" length="20.16" shape="166.36,-53.31 186.52,-52.89"/>
    </edge>
    <edge id=":J3_7" function="internal">
        <lane id=":J3_7_0" index="0" speed="9.85" length="5.78" shape="166.36,-53.31 172.08,-52.48"/>
    </edge>
    <edge id=":J3_8" function="internal">
        <lane id=":J3_8_0" index="0" speed="7.52" length="6.60" shape="166.36,-53.31 172.90,-52.48"/>
    </edge>
    <edge id=":J3_12" function="internal">
        <lane id=":J3_12_0" index="0" speed="9.85" length="15.87" shape="172.08,-52.48 172.70,-52.39 177.23,-50.01 179.95,-46.15 180.85,-40.82"/>
    </edge>
    <edge id=":J3_13" function="internal">
        <lane id=":J3_13_0" index="0" speed="7.52" length="14.19" shape="172.90,-52.48 173.12,-52.45 175.99,-50.31 174.96,-46.88 170.04,-42.17"/>
    </edge>
    <edge id=":J3_9" function="internal">
        <lane id=":J3_9_0" index="0" speed="5.46" length="10.11" shape="168.07,-44.69 170.46,-46.98 170.96,-48.65 169.57,-49.69 166.28,-50.11"/>
    </edge>
    <edge id=":J3_10" function="internal">
        <lane id=":J3_10_0" index="0" speed="13.89" length="20.40" shape="168.07,-44.69 171.91,-47.28 176.90,-49.97 182.08,-52.07 186.52,-52.89"/>
    </edge>
    <edge id=":J3_11" function="internal">
        <lane id=":J3_11_0" index="0" speed="7.68" length="19.55" shape="168.07,-44.69 173.67,-48.19 177.66,-48.71 180.06,-46.26 180.85,-40.82"/>
    </edge>
    <edge id=":J4_0" function="internal">
        <lane id=":J4_0_0" index="0" speed="7.55" length="10.97" shape="110.19,12.74 107.71,11.14 105.22,10.59 102.74,11.09 100.25,12.65"/>
    </edge>
    <edge id=":J4_1" function="internal">
        <lane id=":J4_1_0" index="0" speed="13.89" length="15.72" shape="110.19,12.74 98.16,2.63"/>
    </edge>
    <edge id=":J4_2" function="internal">
        <lane id=":J4_2_0" index="0" speed="7.69" length="4.24" shape="110.19,12.74 107.40,9.56"/>
    </edge>
    <edge id=":J4_12" function="internal">
        <lane id=":J4_12_0" index="0" speed="7.69" length="10.77" shape="107.40,9.56 106.52,6.41 107.55,3.31 110.48,0.25"/>
    </edge>
    <edge id=":J4_3" function="internal">
        <lane id=":J4_3_0" index="0" speed="6.12" length="9.06" shape="112.45,2.78 110.68,4.62 110.06,6.49 110.59,8.39 112.28,10.32"/>
    </edge>
    <edge id=":J4_4" function="internal">
        <lane id=":J4_4_0" index="0" speed="13.89" length="15.70" shape="112.45,2.78 100.25,12.65"/>
    </edge>
    <edge id=":J4_5" function="internal">
        <lane id=":J4_5_0" index="0" speed="9.13" length="15.63" shape="112.45,2.78 108.84,4.89 105.25,5.57 101.69,4.81 98.16,2.63"/>
    </edge>
    <edge id=":J4_6" function="internal">
        <lane id=":J4_6_0" index="0" speed="7.82" length="11.25" shape="100.19,0.16 102.73,1.73 105.30,2.27 107.88,1.78 110.48,0.25"/>
    </edge>
    <edge id=":J4_7" function="internal">
        <lane id=":J4_7_0" index="0" speed="13.89" length="15.79" shape="100.19,0.16 112.28,10.32"/>
    </edge>
    <edge id=":J4_8" function="internal">
        <lane id=":J4_8_0" index="0" speed="7.71" length="4.33" shape="100.19,0.16 103.02,3.27 103.06,3.38"/>
    </edge>
    <edge id=":J4_13" function="internal">
        <lane id=":J4_13_0" index="0" speed="7.71" length="10.61" shape="103.06,3.38 103.98,6.39 103.05,9.52 100.25,12.65"/>
    </edge>
    <edge id=":J4_9" function="internal">
        <lane id=":J4_9_0" index="0" speed="6.15" length="9.06" shape="98.19,10.20 99.89,8.30 100.45,6.40 99.87,4.51 98.16,2.63"/>
    </edge>
    <edge id=":J4_10" function="internal">
        <lane id=":J4_10_0" index="0" speed="13.89" length="15.81" shape="98.19,10.20 110.48,0.25"/>
    </edge>
    <edge id=":J4_11" function="internal">
        <lane id=":J4_11_0" index="0" speed="8.89" length="15.54" shape="98.19,10.20 101.72,7.99 105.24,7.27 108.76,8.05 112.28,10.32"/>
    </edge>
    <edge id=":J6_0" function="internal">
        <lane id=":J6_0_0" index="0" speed="5.96" length="11.24" shape="39.86,-45.37 36.51,-47.67 34.11,-48.27 32.65,-47.15 32.15,-44.32"/>
    </edge>
    <edge id=":J6_1" function="internal">
        <lane id=":J6_1_0" index="0" speed="13.89" length="18.64" shape="39.86,-45.37 36.38,-48.01 32.12,-50.72 27.65,-52.91 23.53,-53.96"/>
    </edge>
    <edge id=":J6_2" function="internal">
        <lane id=":J6_2_0" index="0" speed="7.55" length="21.20" shape="39.86,-45.37 34.93,-50.33 33.97,-53.81 36.97,-55.80 43.94,-56.32"/>
    </edge>
    <edge id=":J6_3" function="internal">
        <lane id=":J6_3_0" index="0" speed="5.46" length="10.22" shape="43.86,-53.12 40.50,-52.87 39.05,-51.91 39.52,-50.23 41.90,-47.84"/>
    </edge>
    <edge id=":J6_4" function="internal">
        <lane id=":J6_4_0" index="0" speed="8.58" length="16.69" shape="43.86,-53.12 38.76,-52.68 35.11,-51.07 32.91,-48.28 32.15,-44.32"/>
    </edge>
    <edge id=":J6_5" function="internal">
        <lane id=":J6_5_0" index="0" speed="13.89" length="20.35" shape="43.86,-53.12 23.53,-53.96"/>
    </edge>
    <edge id=":J6_6" function="internal">
        <lane id=":J6_6_0" index="0" speed="13.89" length="20.19" shape="23.77,-57.15 43.94,-56.32"/>
    </edge>
    <edge id=":J6_7" function="internal">
        <lane id=":J6_7_0" index="0" speed="13.89" length="3.34" shape="23.77,-57.15 27.00,-56.30"/>
    </edge>
    <edge id=":J6_8" function="internal">
        <lane id=":J6_8_0" index="0" speed="8.94" length="3.15" shape="23.77,-57.15 26.81,-56.31"/>
    </edge>
    <edge id=":J6_12" function="internal">
        <lane id=":J6_12_0" index="0" speed="13.89" length="17.22" shape="27.00,-56.30 28.16,-55.99 33.25,-53.56 38.14,-50.59 41.90,-47.84"/>
    </edge>
    <edge id=":J6_13" function="internal">
        <lane id=":J6_13_0" index="0" speed="8.94" length="13.94" shape="26.81,-56.31 27.47,-56.12 30.10,-53.64 31.66,-49.71 32.15,-44.32"/>
    </edge>
    <edge id=":J6_9" function="internal">
        <lane id=":J6_9_0" index="0" speed="7.64" length="12.21" shape="28.95,-44.35 28.64,-48.40 27.63,-51.36 25.93,-53.21 23.53,-53.96"/>
    </edge>
    <edge id=":J6_10" function="internal">
        <lane id=":J6_10_0" index="0" speed="9.76" length="21.91" shape="28.95,-44.35 29.92,-49.72 32.74,-53.51 37.42,-55.71 43.94,-56.32"/>
    </edge>
    <edge id=":J6_11" function="internal">
        <lane id=":J6_11_0" index="0" speed="7.70" length="19.84" shape="28.95,-44.35 29.80,-49.84 32.24,-52.26 36.27,-51.59 41.90,-47.84"/>
    </edge>

    <edge id="-E0" from="J1" to="J0" priority="-1">
        <lane id="-E0_0" index="0" speed="13.89" length="36.94" shape="22.47,71.44 -14.47,71.17"/>
    </edge>
    <edge id="-E1" from="J2" to="J1" priority="-1">
        <lane id="-E1_0" index="0" speed="13.89" length="124.03" shape="166.50,71.39 42.47,71.48"/>
    </edge>
    <edge id="-E10" from="J7" to="J2" priority="-1">
        <lane id="-E10_0" index="0" speed="13.89" length="52.09" shape="238.01,75.06 186.03,71.81"/>
    </edge>
    <edge id="-E11" from="J8" to="J6" priority="-1">
        <lane id="-E11_0" index="0" speed="13.89" length="44.17" shape="-20.29,-60.37 23.77,-57.15"/>
    </edge>
    <edge id="-E2" from="J3" to="J2" priority="-1">
        <lane id="-E2_0" index="0" speed="13.89" length="99.65" shape="180.85,-40.82 180.74,58.83"/>
    </edge>
    <edge id="-E3" from="J4" to="J2" priority="-1">
        <lane id="-E3_0" index="0" speed="13.89" length="76.82" shape="112.28,10.32 170.58,60.34"/>
    </edge>
    <edge id="-E4" from="J1" to="J4" priority="-1">
        <lane id="-E4_0" index="0" speed="13.89" length="78.06" shape="38.44,60.44 98.19,10.20"/>
    </edge>
    <edge id="-E5" from="J4" to="J3" priority="-1">
        <lane id="-E5_0" index="0" speed="13.89" length="73.05" shape="110.48,0.25 168.07,-44.69"/>
    </edge>
    <edge id="-E6" from="J3" to="J5" priority="-1">
        <lane id="-E6_0" index="0" speed="13.89" length="58.97" shape="186.52,-52.89 245.48,-52.11"/>
    </edge>
    <edge id="-E7" from="J6" to="J3" priority="-1">
        <lane id="-E7_0" index="0" speed="13.89" length="122.45" shape="43.94,-56.32 166.36,-53.31"/>
    </edge>
    <edge id="-E8" from="J4" to="J6" priority="-1">
        <lane id="-E8_0" index="0" speed="13.89" length="75.51" shape="98.16,2.63 39.86,-45.37"/>
    </edge>
    <edge id="-E9" from="J1" to="J6" priority="-1">
        <lane id="-E9_0" index="0" speed="13.89" length="103.29" shape="28.16,58.94 28.95,-44.35"/>
    </edge>
    <edge id="E0" from="J0" to="J1" priority="-1">
        <lane id="E0_0" index="0" speed="13.89" length="36.94" shape="-14.45,67.97 22.49,68.24"/>
    </edge>
    <edge id="E1" from="J1" to="J2" priority="-1">
        <lane id="E1_0" index="0" speed="13.89" length="124.03" shape="42.47,68.28 166.49,68.19"/>
    </edge>
    <edge id="E10" from="J2" to="J7" priority="-1">
        <lane id="E10_0" index="0" speed="13.89" length="52.09" shape="186.23,68.62 238.21,71.87"/>
    </edge>
    <edge id="E11" from="J6" to="J8" priority="-1">
        <lane id="E11_0" index="0" speed="13.89" length="44.17" shape="23.53,-53.96 -20.52,-57.17"/>
    </edge>
    <edge id="E2" from="J2" to="J3" priority="-1">
        <lane id="E2_0" index="0" speed="13.89" length="99.65" shape="177.54,58.83 177.65,-40.83"/>
    </edge>
    <edge id="E3" from="J2" to="J4" priority="-1">
        <lane id="E3_0" index="0" speed="13.89" length="76.82" shape="168.50,62.77 110.19,12.74"/>
    </edge>
    <edge id="E4" from="J4" to="J1" priority="-1">
        <lane id="E4_0" index="0" speed="13.89" length="78.06" shape="100.25,12.65 40.50,62.88"/>
    </edge>
    <edge id="E5" from="J3" to="J4" priority="-1">
        <lane id="E5_0" index="0" speed="13.89" length="73.05" shape="170.04,-42.17 112.45,2.78"/>
    </edge>
    <edge id="E6" from="J5" to="J3" priority="-1">
        <lane id="E6_0" index="0" speed="13.89" length="58.97" shape="245.44,-48.91 186.48,-49.69"/>
    </edge>
    <edge id="E7" from="J3" to="J6" priority="-1">
        <lane id="E7_0" index="0" speed="13.89" length="122.45" shape="166.28,-50.11 43.86,-53.12"/>
    </edge>
    <edge id="E8" from="J6" to="J4" priority="-1">
        <lane id="E8_0" index="0" speed="13.89" length="75.51" shape="41.90,-47.84 100.19,0.16"/>
    </edge>
    <edge id="E9" from="J6" to="J1" priority="-1">
        <lane id="E9_0" index="0" speed="13.89" length="103.29" shape="32.15,-44.32 31.36,58.96"/>
    </edge>

    <junction id="J0" type="dead_end" x="-14.46" y="69.57" incLanes="-E0_0" intLanes="" shape="-14.46,69.57 -14.48,72.77 -14.46,69.57"/>
    <junction id="J1" type="priority" x="29.68" y="69.89" incLanes="-E1_0 E4_0 E9_0 E0_0" intLanes=":J1_0_0 :J1_12_0 :J1_13_0 :J1_3_0 :J1_4_0 :J1_5_0 :J1_6_0 :J1_7_0 :J1_8_0 :J1_9_0 :J1_10_0 :J1_11_0" shape="42.47,73.08 42.47,66.68 40.59,66.40 40.23,66.04 40.27,65.54 40.70,64.90 41.53,64.11 37.41,59.21 34.93,60.86 34.06,61.03 33.44,60.78 33.08,60.09 32.96,58.98 26.56,58.93 26.43,61.29 26.09,63.22 25.52,64.72 24.73,65.79 23.73,66.43 22.50,66.64 22.46,73.04">
        <request index="0"  response="000000000000" foes="000100010000" cont="0"/>
        <request index="1"  response="111000000000" foes="111100110000" cont="1"/>
        <request index="2"  response="110000000000" foes="110011110000" cont="1"/>
        <request index="3"  response="100000000000" foes="100010000000" cont="0"/>
        <request index="4"  response="100000000111" foes="100110000111" cont="0"/>
        <request index="5"  response="011000000110" foes="011110000110" cont="0"/>
        <request index="6"  response="010000000100" foes="010000000100" cont="0"/>
        <request index="7"  response="110000111100" foes="110000111100" cont="0"/>
        <request index="8"  response="110000110011" foes="110000110011" cont="0"/>
        <request index="9"  response="000000000000" foes="000000100010" cont="0"/>
        <request index="10" response="000000000000" foes="000111100110" cont="0"/>
        <request index="11" response="000000000000" foes="000110011110" cont="0"/>
    </junction>
    <junction id="J2" type="priority" x="179.13" y="69.78" incLanes="-E10_0 -E2_0 -E3_0 E1_0" intLanes=":J2_0_0 :J2_12_0 :J2_13_0 :J2_3_0 :J2_4_0 :J2_5_0 :J2_6_0 :J2_7_0 :J2_8_0 :J2_9_0 :J2_10_0 :J2_11_0" shape="185.93,73.41 186.33,67.02 184.11,66.00 183.33,64.85 182.78,63.27 182.45,61.27 182.34,58.83 175.94,58.82 175.46,60.64 174.86,60.90 174.02,60.74 172.94,60.14 171.62,59.12 167.46,63.98 168.70,65.43 168.73,65.94 168.38,66.30 167.63,66.52 166.49,66.59 166.50,72.99">
        <request index="0"  response="000000000000" foes="000100010000" cont="0"/>
        <request index="1"  response="111000000000" foes="111100110000" cont="1"/>
        <request index="2"  response="110000000000" foes="110011110000" cont="1"/>
        <request index="3"  response="100010000000" foes="100010000000" cont="0"/>
        <request index="4"  response="100010000111" foes="100110000111" cont="0"/>
        <request index="5"  response="011010000110" foes="011110000110" cont="0"/>
        <request index="6"  response="010000000100" foes="010000000100" cont="0"/>
        <request index="7"  response="110000000100" foes="110000111100" cont="0"/>
        <request index="8"  response="110000110011" foes="110000110011" cont="0"/>
        <request index="9"  response="000000000000" foes="000000100010" cont="0"/>
        <request index="10" response="000000000000" foes="000111100110" cont="0"/>
        <request index="11" response="000000000000" foes="000110011110" cont="0"/>
    </junction>
    <junction id="J3" type="priority" x="179.26" y="-51.39" incLanes="E2_0 E6_0 -E7_0 -E5_0" intLanes=":J3_0_0 :J3_1_0 :J3_2_0 :J3_3_0 :J3_4_0 :J3_5_0 :J3_6_0 :J3_12_0 :J3_13_0 :J3_9_0 :J3_10_0 :J3_11_0" shape="176.05,-40.83 182.45,-40.82 182.56,-43.06 182.90,-44.89 183.45,-46.30 184.23,-47.31 185.23,-47.91 186.46,-48.09 186.54,-54.49 166.40,-54.91 166.24,-48.51 168.11,-48.18 168.45,-47.82 168.40,-47.33 167.94,-46.70 167.09,-45.95 171.03,-40.90 173.82,-42.64 174.79,-42.85 175.49,-42.61 175.91,-41.94">
        <request index="0"  response="000100010000" foes="000100010000" cont="0"/>
        <request index="1"  response="111100110000" foes="111100110000" cont="0"/>
        <request index="2"  response="110011110000" foes="110011110000" cont="0"/>
        <request index="3"  response="000000000000" foes="100010000000" cont="0"/>
        <request index="4"  response="000000000000" foes="100110000111" cont="0"/>
        <request index="5"  response="000000000000" foes="011110000110" cont="0"/>
        <request index="6"  response="000000000000" foes="010000000100" cont="0"/>
        <request index="7"  response="000000111000" foes="110000111100" cont="1"/>
        <request index="8"  response="000000110000" foes="110000110011" cont="1"/>
        <request index="9"  response="000000100000" foes="000000100010" cont="0"/>
        <request index="10" response="000111100000" foes="000111100110" cont="0"/>
        <request index="11" response="000110011000" foes="000110011110" cont="0"/>
    </junction>
    <junction id="J4" type="priority" x="105.23" y="6.38" incLanes="E3_0 E5_0 E8_0 -E4_0" intLanes=":J4_0_0 :J4_1_0 :J4_12_0 :J4_3_0 :J4_4_0 :J4_5_0 :J4_6_0 :J4_7_0 :J4_13_0 :J4_9_0 :J4_10_0 :J4_11_0" shape="109.15,13.96 113.32,9.10 111.98,7.38 111.83,6.53 112.02,5.69 112.56,4.86 113.43,4.04 109.50,-1.01 106.70,0.44 105.32,0.62 103.94,0.42 102.57,-0.14 101.21,-1.08 97.14,3.86 98.51,5.56 98.69,6.41 98.52,7.27 98.01,8.12 97.16,8.98 101.28,13.88 103.90,12.42 105.21,12.25 106.52,12.45 107.84,13.02">
        <request index="0"  response="000000000000" foes="000100010000" cont="0"/>
        <request index="1"  response="000000000000" foes="111100110000" cont="0"/>
        <request index="2"  response="000111000000" foes="110111110000" cont="1"/>
        <request index="3"  response="000010000000" foes="100010000000" cont="0"/>
        <request index="4"  response="000110000111" foes="100110000111" cont="0"/>
        <request index="5"  response="011110000110" foes="111110000110" cont="0"/>
        <request index="6"  response="000000000000" foes="010000000100" cont="0"/>
        <request index="7"  response="000000000000" foes="110000111100" cont="0"/>
        <request index="8"  response="000000000011" foes="110000110111" cont="1"/>
        <request index="9"  response="000000000010" foes="000000100010" cont="0"/>
        <request index="10" response="000111000110" foes="000111100110" cont="0"/>
        <request index="11" response="000110111110" foes="000110111110" cont="0"/>
    </junction>
    <junction id="J5" type="dead_end" x="245.46" y="-50.51" incLanes="-E6_0" intLanes="" shape="245.46,-50.51 245.50,-53.71 245.46,-50.51"/>
    <junction id="J6" type="priority" x="30.63" y="-55.05" incLanes="-E8_0 E7_0 -E11_0 -E9_0" intLanes=":J6_0_0 :J6_1_0 :J6_2_0 :J6_3_0 :J6_4_0 :J6_5_0 :J6_6_0 :J6_12_0 :J6_13_0 :J6_9_0 :J6_10_0 :J6_11_0" shape="38.85,-44.14 42.91,-49.08 41.64,-50.48 41.60,-50.96 41.95,-51.30 42.69,-51.48 43.83,-51.52 43.98,-57.92 23.88,-58.75 23.42,-52.37 25.63,-51.35 26.40,-50.22 26.94,-48.68 27.26,-46.73 27.35,-44.36 33.75,-44.31 34.33,-46.07 35.04,-46.27 36.03,-46.01 37.30,-45.30">
        <request index="0"  response="000100010000" foes="000100010000" cont="0"/>
        <request index="1"  response="000100110000" foes="111100110000" cont="0"/>
        <request index="2"  response="110011110000" foes="110011110000" cont="0"/>
        <request index="3"  response="000000000000" foes="100010000000" cont="0"/>
        <request index="4"  response="000000000000" foes="100110000111" cont="0"/>
        <request index="5"  response="000000000000" foes="011110000110" cont="0"/>
        <request index="6"  response="000000000000" foes="010000000100" cont="0"/>
        <request index="7"  response="000000111000" foes="110000111100" cont="1"/>
        <request index="8"  response="000000110000" foes="110000110011" cont="1"/>
        <request index="9"  response="000000100010" foes="000000100010" cont="0"/>
        <request index="10" response="000111100010" foes="000111100110" cont="0"/>
        <request index="11" response="000110011010" foes="000110011110" cont="0"/>
    </junction>
    <junction id="J7" type="dead_end" x="238.11" y="73.47" incLanes="E10_0" intLanes="" shape="238.11,73.47 238.31,70.27 238.11,73.47"/>
    <junction id="J8" type="dead_end" x="-20.40" y="-58.77" incLanes="E11_0" intLanes="" shape="-20.40,-58.77 -20.64,-55.58 -20.40,-58.77"/>

    <junction id=":J1_12_0" type="internal" x="36.67" y="70.76" incLanes=":J1_1_0 E0_0" intLanes=":J1_4_0 :J1_5_0 :J1_8_0 :J1_9_0 :J1_10_0 :J1_11_0"/>
    <junction id=":J1_13_0" type="internal" x="35.91" y="70.81" incLanes=":J1_2_0 E0_0" intLanes=":J1_4_0 :J1_5_0 :J1_6_0 :J1_7_0 :J1_10_0 :J1_11_0"/>
    <junction id=":J2_12_0" type="internal" x="182.90" y="71.03" incLanes=":J2_1_0 E1_0" intLanes=":J2_4_0 :J2_5_0 :J2_8_0 :J2_9_0 :J2_10_0 :J2_11_0"/>
    <junction id=":J2_13_0" type="internal" x="183.13" y="71.03" incLanes=":J2_2_0 E1_0" intLanes=":J2_4_0 :J2_5_0 :J2_6_0 :J2_7_0 :J2_10_0 :J2_11_0"/>
    <junction id=":J3_12_0" type="internal" x="172.08" y="-52.48" incLanes=":J3_7_0 E6_0" intLanes=":J3_2_0 :J3_3_0 :J3_4_0 :J3_5_0 :J3_10_0 :J3_11_0"/>
    <junction id=":J3_13_0" type="internal" x="172.90" y="-52.48" incLanes=":J3_8_0 E6_0" intLanes=":J3_0_0 :J3_1_0 :J3_4_0 :J3_5_0 :J3_10_0 :J3_11_0"/>
    <junction id=":J4_12_0" type="internal" x="107.40" y="9.56" incLanes=":J4_2_0 E8_0" intLanes=":J4_4_0 :J4_5_0 :J4_6_0 :J4_7_0 :J4_10_0 :J4_11_0"/>
    <junction id=":J4_13_0" type="internal" x="103.06" y="3.38" incLanes=":J4_8_0 E3_0" intLanes=":J4_0_0 :J4_1_0 :J4_4_0 :J4_5_0 :J4_10_0 :J4_11_0"/>
    <junction id=":J6_12_0" type="internal" x="27.00" y="-56.30" incLanes=":J6_7_0 E7_0" intLanes=":J6_2_0 :J6_3_0 :J6_4_0 :J6_5_0 :J6_10_0 :J6_11_0"/>
    <junction id=":J6_13_0" type="internal" x="26.81" y="-56.31" incLanes=":J6_8_0 E7_0" intLanes=":J6_0_0 :J6_1_0 :J6_4_0 :J6_5_0 :J6_10_0 :J6_11_0"/>

    <connection from="-E1" to="-E0" fromLane="0" toLane="0" via=":J1_0_0" dir="s" state="M"/>
    <connection from="-E1" to="-E9" fromLane="0" toLane="0" via=":J1_1_0" dir="l" state="m"/>
    <connection from="-E1" to="-E4" fromLane="0" toLane="0" via=":J1_2_0" dir="l" state="m"/>
    <connection from="-E10" to="-E1" fromLane="0" toLane="0" via=":J2_0_0" dir="s" state="M"/>
    <connection from="-E10" to="E3" fromLane="0" toLane="0" via=":J2_1_0" dir="L" state="m"/>
    <connection from="-E10" to="E2" fromLane="0" toLane="0" via=":J2_2_0" dir="l" state="m"/>
    <connection from="-E11" to="-E7" fromLane="0" toLane="0" via=":J6_6_0" dir="s" state="M"/>
    <connection from="-E11" to="E8" fromLane="0" toLane="0" via=":J6_7_0" dir="L" state="m"/>
    <connection from="-E11" to="E9" fromLane="0" toLane="0" via=":J6_8_0" dir="l" state="m"/>
    <connection from="-E2" to="E10" fromLane="0" toLane="0" via=":J2_3_0" dir="r" state="m"/>
    <connection from="-E2" to="-E1" fromLane="0" toLane="0" via=":J2_4_0" dir="L" state="m"/>
    <connection from="-E2" to="E3" fromLane="0" toLane="0" via=":J2_5_0" dir="l" state="m"/>
    <connection from="-E3" to="E2" fromLane="0" toLane="0" via=":J2_6_0" dir="r" state="m"/>
    <connection from="-E3" to="E10" fromLane="0" toLane="0" via=":J2_7_0" dir="s" state="m"/>
    <connection from="-E3" to="-E1" fromLane="0" toLane="0" via=":J2_8_0" dir="l" state="m"/>
    <connection from="-E4" to="-E8" fromLane="0" toLane="0" via=":J4_9_0" dir="r" state="m"/>
    <connection from="-E4" to="-E5" fromLane="0" toLane="0" via=":J4_10_0" dir="s" state="m"/>
    <connection from="-E4" to="-E3" fromLane="0" toLane="0" via=":J4_11_0" dir="l" state="m"/>
    <connection from="-E5" to="E7" fromLane="0" toLane="0" via=":J3_9_0" dir="r" state="m"/>
    <connection from="-E5" to="-E6" fromLane="0" toLane="0" via=":J3_10_0" dir="s" state="m"/>
    <connection from="-E5" to="-E2" fromLane="0" toLane="0" via=":J3_11_0" dir="l" state="m"/>
    <connection from="-E7" to="-E6" fromLane="0" toLane="0" via=":J3_6_0" dir="s" state="M"/>
    <connection from="-E7" to="-E2" fromLane="0" toLane="0" via=":J3_7_0" dir="L" state="m"/>
    <connection from="-E7" to="E5" fromLane="0" toLane="0" via=":J3_8_0" dir="l" state="m"/>
    <connection from="-E8" to="E9" fromLane="0" toLane="0" via=":J6_0_0" dir="r" state="m"/>
    <connection from="-E8" to="E11" fromLane="0" toLane="0" via=":J6_1_0" dir="s" state="m"/>