<?xml version="1.0" encoding="UTF-8"?>

<!-- generated on 2023-11-15 14:34:25 by Eclipse SUMO netedit Version 1.18.0
<configuration xmlns:xsi="http://www.w3.org/2001/XMLSchema-instance" xsi:noNamespaceSchemaLocation="http://sumo.dlr.de/xsd/neteditConfiguration.xsd">

    <input>
        <sumo-net-file value="/Users/cianmurphy/code_directories/final_year_project/Experiments/Exp4/exp4.net.xml"/>
    </input>

    <output>
        <output-file value="/Users/cianmurphy/code_directories/final_year_project/Experiments/Exp4/exp4.net.xml"/>
    </output>

    <processing>
        <offset.disable-normalization value="true"/>
    </processing>

    <junctions>
        <no-turnarounds value="true"/>
    </junctions>

    <netedit>
        <new-network value="false"/>
    </netedit>

</configuration>
-->

<net version="1.16" junctionCornerDetail="5" limitTurnSpeed="5.50" xmlns:xsi="http://www.w3.org/2001/XMLSchema-instance" xsi:noNamespaceSchemaLocation="http://sumo.dlr.de/xsd/net_file.xsd">

    <location netOffset="0.00,0.00" convBoundary="-14.46,-53.93,245.46,69.89" origBoundary="10000000000.00,10000000000.00,-10000000000.00,-10000000000.00" projParameter="!"/>

    <edge id=":J1_0" function="internal">
        <lane id=":J1_0_0" index="0" speed="7.50" length="6.59" shape="42.47,71.48 35.92,70.81"/>
    </edge>
    <edge id=":J1_4" function="internal">
        <lane id=":J1_4_0" index="0" speed="7.50" length="14.01" shape="35.92,70.81 35.77,70.80 32.87,68.73 33.76,65.27 38.44,60.44"/>
    </edge>
    <edge id=":J1_1" function="internal">
        <lane id=":J1_1_0" index="0" speed="5.46" length="10.06" shape="40.50,62.88 38.21,65.25 37.78,66.93 39.20,67.95 42.47,68.28"/>
    </edge>
    <edge id=":J1_2" function="internal">
        <lane id=":J1_2_0" index="0" speed="13.89" length="16.26" shape="24.51,68.25 28.26,67.50 31.92,65.56 35.35,63.02 38.44,60.44"/>
    </edge>
    <edge id=":J1_3" function="internal">
        <lane id=":J1_3_0" index="0" speed="13.89" length="17.96" shape="24.51,68.25 42.47,68.28"/>
    </edge>
    <edge id=":J2_0" function="internal">
        <lane id=":J2_0_0" index="0" speed="9.77" length="21.62" shape="180.74,58.83 179.85,64.32 177.17,68.24 172.72,70.60 166.50,71.39"/>
    </edge>
    <edge id=":J2_1" function="internal">
        <lane id=":J2_1_0" index="0" speed="7.59" length="8.78" shape="180.74,58.83 179.97,64.49 177.91,66.77"/>
    </edge>
    <edge id=":J2_6" function="internal">
        <lane id=":J2_6_0" index="0" speed="7.59" length="10.72" shape="177.91,66.77 177.67,67.03 173.85,66.46 168.50,62.77"/>
    </edge>
    <edge id=":J2_2" function="internal">
        <lane id=":J2_2_0" index="0" speed="5.78" length="10.66" shape="170.58,60.34 173.62,62.48 175.80,62.94 177.10,61.72 177.54,58.83"/>
    </edge>
    <edge id=":J2_3" function="internal">
        <lane id=":J2_3_0" index="0" speed="7.49" length="20.40" shape="170.58,60.34 175.15,65.17 175.99,68.62 173.11,70.69 166.50,71.39"/>
    </edge>
    <edge id=":J2_4" function="internal">
        <lane id=":J2_4_0" index="0" speed="5.46" length="10.01" shape="166.49,68.19 169.74,67.85 171.15,66.83 170.74,65.14 168.50,62.77"/>
    </edge>
    <edge id=":J2_5" function="internal">
        <lane id=":J2_5_0" index="0" speed="8.59" length="16.47" shape="166.49,68.19 171.32,67.60 174.77,65.84 176.85,62.92 177.54,58.83"/>
    </edge>
    <edge id=":J3_0" function="internal">
        <lane id=":J3_0_0" index="0" speed="5.96" length="11.15" shape="177.65,-40.83 177.17,-43.64 175.73,-44.79 173.33,-44.28 169.97,-42.11"/>
    </edge>
    <edge id=":J3_1" function="internal">
        <lane id=":J3_1_0" index="0" speed="8.67" length="16.62" shape="177.65,-40.83 176.94,-44.77 174.79,-47.62 171.21,-49.37 166.20,-50.03"/>
    </edge>
    <edge id=":J3_2" function="internal">
        <lane id=":J3_2_0" index="0" speed="7.32" length="11.83" shape="186.48,-49.69 184.02,-49.17 182.26,-47.51 181.20,-44.73 180.85,-40.82"/>
    </edge>
    <edge id=":J3_3" function="internal">
        <lane id=":J3_3_0" index="0" speed="13.89" length="18.40" shape="186.48,-49.69 182.34,-48.97 177.83,-47.08 173.51,-44.60 169.97,-42.11"/>
    </edge>
    <edge id=":J3_4" function="internal">
        <lane id=":J3_4_0" index="0" speed="13.89" length="20.28" shape="186.48,-49.69 166.20,-50.03"/>
    </edge>
    <edge id=":J3_5" function="internal">
        <lane id=":J3_5_0" index="0" speed="9.84" length="5.92" shape="166.25,-53.22 172.12,-52.42"/>
    </edge>
    <edge id=":J3_6" function="internal">
        <lane id=":J3_6_0" index="0" speed="7.53" length="6.67" shape="166.25,-53.22 172.88,-52.43"/>
    </edge>
    <edge id=":J3_9" function="internal">
        <lane id=":J3_9_0" index="0" speed="9.84" length="15.78" shape="172.12,-52.42 172.64,-52.35 177.21,-49.99 179.94,-46.15 180.85,-40.82"/>
    </edge>
    <edge id=":J3_10" function="internal">
        <lane id=":J3_10_0" index="0" speed="7.53" length="14.23" shape="172.88,-52.43 173.07,-52.41 175.96,-50.29 174.92,-46.85 169.97,-42.11"/>
    </edge>
    <edge id=":J3_7" function="internal">
        <lane id=":J3_7_0" index="0" speed="5.46" length="10.14" shape="168.00,-44.63 170.40,-46.93 170.91,-48.60 169.50,-49.63 166.20,-50.03"/>
    </edge>
    <edge id=":J3_8" function="internal">
        <lane id=":J3_8_0" index="0" speed="7.69" length="19.62" shape="168.00,-44.63 173.63,-48.16 177.64,-48.70 180.05,-46.25 180.85,-40.82"/>
    </edge>
    <edge id=":J4_0" function="internal">
        <lane id=":J4_0_0" index="0" speed="7.51" length="10.83" shape="110.19,12.74 107.71,11.13 105.25,10.56 102.81,11.03 100.39,12.54"/>
    </edge>
    <edge id=":J4_1" function="internal">
        <lane id=":J4_1_0" index="0" speed="13.89" length="15.62" shape="110.19,12.74 98.46,2.43"/>
    </edge>
    <edge id=":J4_2" function="internal">
        <lane id=":J4_2_0" index="0" speed="7.69" length="4.37" shape="110.19,12.74 107.40,9.56 107.37,9.43"/>
    </edge>
    <edge id=":J4_12" function="internal">
        <lane id=":J4_12_0" index="0" speed="7.69" length="10.64" shape="107.37,9.43 106.52,6.41 107.55,3.31 110.48,0.25"/>
    </edge>
    <edge id=":J4_3" function="internal">
        <lane id=":J4_3_0" index="0" speed="6.12" length="9.06" shape="112.45,2.78 110.68,4.62 110.06,6.49 110.59,8.39 112.28,10.32"/>
    </edge>
    <edge id=":J4_4" function="internal">
        <lane id=":J4_4_0" index="0" speed="13.89" length="15.52" shape="112.45,2.78 100.39,12.54"/>
    </edge>
    <edge id=":J4_5" function="internal">
        <lane id=":J4_5_0" index="0" speed="8.89" length="15.42" shape="112.45,2.78 108.84,4.89 105.31,5.53 101.85,4.71 98.46,2.43"/>
    </edge>
    <edge id=":J4_6" function="internal">
        <lane id=":J4_6_0" index="0" speed="7.56" length="10.88" shape="100.61,0.05 102.99,1.65 105.43,2.22 107.92,1.75 110.48,0.25"/>
    </edge>
    <edge id=":J4_7" function="internal">
        <lane id=":J4_7_0" index="0" speed="13.89" length="15.54" shape="100.61,0.05 112.28,10.32"/>
    </edge>
    <edge id=":J4_8" function="internal">
        <lane id=":J4_8_0" index="0" speed="7.78" length="4.12" shape="100.61,0.05 103.24,3.22"/>
    </edge>
    <edge id=":J4_13" function="internal">
        <lane id=":J4_13_0" index="0" speed="7.78" length="10.62" shape="103.24,3.22 104.08,6.36 103.13,9.47 100.39,12.54"/>
    </edge>
    <edge id=":J4_9" function="internal">
        <lane id=":J4_9_0" index="0" speed="6.23" length="9.05" shape="98.33,10.09 100.01,8.20 100.60,6.30 100.08,4.37 98.46,2.43"/>
    </edge>
    <edge id=":J4_10" function="internal">
        <lane id=":J4_10_0" index="0" speed="13.89" length="15.64" shape="98.33,10.09 110.48,0.25"/>
    </edge>
    <edge id=":J4_11" function="internal">
        <lane id=":J4_11_0" index="0" speed="8.85" length="15.40" shape="98.33,10.09 101.79,7.93 105.27,7.24 108.77,8.04 112.28,10.32"/>
    </edge>
    <edge id=":J6_0" function="internal">
        <lane id=":J6_0_0" index="0" speed="6.61" length="15.47" shape="43.72,-47.01 40.36,-50.76 39.79,-53.40 42.01,-54.94 47.02,-55.38"/>
    </edge>
    <edge id=":J6_1" function="internal">
        <lane id=":J6_1_0" index="0" speed="4.18" length="5.16" shape="46.97,-52.18 45.30,-52.03 44.55,-51.52 44.74,-50.64 45.87,-49.39"/>
    </edge>

    <edge id="-E1" from="J2" to="J1" priority="-1">
        <lane id="-E1_0" index="0" speed="13.89" length="124.03" shape="166.50,71.39 42.47,71.48"/>
    </edge>
    <edge id="-E2" from="J3" to="J2" priority="-1">
        <lane id="-E2_0" index="0" speed="13.89" length="99.65" shape="180.85,-40.82 180.74,58.83"/>
    </edge>
    <edge id="-E3" from="J4" to="J2" priority="-1">
        <lane id="-E3_0" index="0" speed="13.89" length="76.82" shape="112.28,10.32 170.58,60.34"/>
    </edge>
    <edge id="-E4" from="J1" to="J4" priority="-1">
        <lane id="-E4_0" index="0" speed="13.89" length="78.24" shape="38.44,60.44 98.33,10.09"/>
    </edge>
    <edge id="-E5" from="J4" to="J3" priority="-1">
        <lane id="-E5_0" index="0" speed="13.89" length="72.96" shape="110.48,0.25 168.00,-44.63"/>
    </edge>
    <edge id="-E7" from="J6" to="J3" priority="-1">
        <lane id="-E7_0" index="0" speed="13.89" length="119.25" shape="47.02,-55.38 166.25,-53.22"/>
    </edge>
    <edge id="-E8" from="J4" to="J6" priority="-1">
        <lane id="-E8_0" index="0" speed="13.89" length="73.76" shape="98.46,2.43 43.72,-47.01"/>
    </edge>
    <edge id="E0" from="J0" to="J1" priority="-1">
        <lane id="E0_0" index="0" speed="13.89" length="38.96" shape="-14.45,67.97 24.51,68.25"/>
    </edge>
    <edge id="E1" from="J1" to="J2" priority="-1">
        <lane id="E1_0" index="0" speed="13.89" length="124.03" shape="42.47,68.28 166.49,68.19"/>
    </edge>
    <edge id="E2" from="J2" to="J3" priority="-1">
        <lane id="E2_0" index="0" speed="13.89" length="99.65" shape="177.54,58.83 177.65,-40.83"/>
    </edge>
    <edge id="E3" from="J2" to="J4" priority="-1">
        <lane id="E3_0" index="0" speed="13.89" length="76.82" shape="168.50,62.77 110.19,12.74"/>
    </edge>
    <edge id="E4" from="J4" to="J1" priority="-1">
        <lane id="E4_0" index="0" speed="13.89" length="78.24" shape="100.39,12.54 40.50,62.88"/>
    </edge>
    <edge id="E5" from="J3" to="J4" priority="-1">
        <lane id="E5_0" index="0" speed="13.89" length="72.96" shape="169.97,-42.11 112.45,2.78"/>
    </edge>
    <edge id="E6" from="J5" to="J3" priority="-1">
        <lane id="E6_0" index="0" speed="13.89" length="58.97" shape="245.44,-48.91 186.48,-49.69"/>
    </edge>
    <edge id="E7" from="J3" to="J6" priority="-1">
        <lane id="E7_0" index="0" speed="13.89" length="119.25" shape="166.20,-50.03 46.97,-52.18"/>
    </edge>
    <edge id="E8" from="J6" to="J4" priority="-1">
        <lane id="E8_0" index="0" speed="13.89" length="73.76" shape="45.87,-49.39 100.61,0.05"/>
    </edge>

    <junction id="J0" type="dead_end" x="-14.46" y="69.57" incLanes="" intLanes="" shape="-14.46,69.57 -14.44,66.37"/>
    <junction id="J1" type="priority" x="29.68" y="69.89" incLanes="-E1_0 E4_0 E0_0" intLanes=":J1_4_0 :J1_1_0 :J1_2_0 :J1_3_0" shape="42.47,73.08 42.47,66.68 40.59,66.40 40.23,66.04 40.27,65.54 40.70,64.90 41.53,64.11 37.41,59.21 35.00,61.43 33.19,63.28 31.62,64.75 29.91,65.81 27.67,66.45 24.52,66.65 24.50,69.85 28.37,70.12 31.19,70.72 33.49,71.49 35.78,72.26 38.60,72.85">
        <request index="0" response="1100" foes="1100" cont="1"/>
        <request index="1" response="1000" foes="1000" cont="0"/>
        <request index="2" response="0000" foes="0001" cont="0"/>
        <request index="3" response="0000" foes="0011" cont="0"/>
    </junction>
    <junction id="J2" type="priority" x="179.13" y="69.78" incLanes="-E2_0 -E3_0 E1_0" intLanes=":J2_0_0 :J2_6_0 :J2_2_0 :J2_3_0 :J2_4_0 :J2_5_0" shape="182.34,58.83 175.94,58.82 175.46,60.64 174.86,60.90 174.02,60.74 172.94,60.14 171.62,59.12 167.46,63.98 168.70,65.43 168.73,65.94 168.38,66.30 167.63,66.52 166.49,66.59 166.50,72.99 171.33,72.59 175.29,71.41 178.37,69.44 180.57,66.69 181.90,63.15">
        <request index="0" response="000000" foes="001000" cont="0"/>
        <request index="1" response="110000" foes="111000" cont="1"/>
        <request index="2" response="100000" foes="100000" cont="0"/>
        <request index="3" response="100011" foes="100011" cont="0"/>
        <request index="4" response="000000" foes="000010" cont="0"/>
        <request index="5" response="000000" foes="001110" cont="0"/>
    </junction>
    <junction id="J3" type="priority" x="179.26" y="-51.39" incLanes="E2_0 E6_0 -E7_0 -E5_0" intLanes=":J3_0_0 :J3_1_0 :J3_2_0 :J3_3_0 :J3_4_0 :J3_9_0 :J3_10_0 :J3_7_0 :J3_8_0" shape="176.05,-40.83 182.45,-40.82 182.56,-43.06 182.90,-44.89 183.45,-46.30 184.23,-47.31 185.23,-47.91 186.46,-48.09 186.50,-51.29 182.15,-51.59 178.98,-52.23 176.39,-53.04 173.80,-53.86 170.63,-54.51 166.28,-54.82 166.17,-48.43 168.04,-48.11 168.38,-47.76 168.32,-47.27 167.87,-46.65 167.01,-45.89 170.95,-40.85 173.79,-42.61 174.78,-42.83 175.48,-42.61 175.91,-41.94">
        <request index="0" response="001001000" foes="001001000" cont="0"/>
        <request index="1" response="111011000" foes="111011000" cont="0"/>
        <request index="2" response="000000000" foes="100100000" cont="0"/>
        <request index="3" response="000000000" foes="101100011" cont="0"/>
        <request index="4" response="000000000" foes="011100010" cont="0"/>
        <request index="5" response="000011100" foes="100011100" cont="1"/>
        <request index="6" response="000011000" foes="100011011" cont="1"/>
        <request index="7" response="000010000" foes="000010010" cont="0"/>
        <request index="8" response="001101100" foes="001101110" cont="0"/>
    </junction>
    <junction id="J4" type="priority" x="105.23" y="6.38" incLanes="E3_0 E5_0 E8_0 -E4_0" intLanes=":J4_0_0 :J4_1_0 :J4_12_0 :J4_3_0 :J4_4_0 :J4_5_0 :J4_6_0 :J4_7_0 :J4_13_0 :J4_9_0 :J4_10_0 :J4_11_0" shape="109.15,13.96 113.32,9.10 111.98,7.38 111.83,6.53 112.02,5.69 112.56,4.86 113.43,4.04 109.50,-1.01 106.80,0.40 105.48,0.57 104.19,0.36 102.93,-0.21 101.68,-1.14 97.39,3.61 98.70,5.39 98.85,6.27 98.67,7.14 98.15,8.01 97.30,8.87 101.42,13.77 103.96,12.37 105.25,12.22 106.54,12.44 107.84,13.01">
        <request index="0"  response="000000000000" foes="000100010000" cont="0"/>
        <request index="1"  response="000000000000" foes="111100110000" cont="0"/>
        <request index="2"  response="000111000000" foes="110111110000" cont="1"/>
        <request index="3"  response="000010000000" foes="100010000000" cont="0"/>
        <request index="4"  response="000110000111" foes="100110000111" cont="0"/>
        <request index="5"  response="011110000110" foes="111110000110" cont="0"/>
        <request index="6"  response="000000000000" foes="010000000100" cont="0"/>
        <request index="7"  response="000000000000" foes="110000111100" cont="0"/>
        <request index="8"  response="000000000011" foes="110000110111" cont="1"/>
        <request index="9"  response="000000000010" foes="000000100010" cont="0"/>
        <request index="10" response="000111000110" foes="000111100110" cont="0"/>
        <request index="11" response="000110111110" foes="000110111110" cont="0"/>
    </junction>
    <junction id="J5" type="dead_end" x="245.46" y="-50.51" incLanes="" intLanes="" shape="245.46,-50.51 245.42,-47.31"/>
    <junction id="J6" type="priority" x="38.45" y="-53.93" incLanes="-E8_0 E7_0" intLanes=":J6_0_0 :J6_1_0" shape="42.65,-45.83 46.94,-50.58 47.05,-56.98 42.18,-56.75 38.97,-55.87 37.41,-54.34 37.50,-52.16 39.25,-49.32">
        <request index="0" response="00" foes="00" cont="0"/>
        <request index="1" response="00" foes="00" cont="0"/>
    </junction>

    <junction id=":J1_4_0" type="internal" x="35.92" y="70.81" incLanes=":J1_0_0 E0_0" intLanes=":J1_2_0 :J1_3_0"/>
    <junction id=":J2_6_0" type="internal" x="177.91" y="66.77" incLanes=":J2_1_0 E1_0" intLanes=":J2_3_0 :J2_4_0 :J2_5_0"/>
    <junction id=":J3_9_0" type="internal" x="172.12" y="-52.42" incLanes=":J3_5_0 E6_0" intLanes=":J3_2_0 :J3_3_0 :J3_4_0 :J3_8_0"/>
    <junction id=":J3_10_0" type="internal" x="172.88" y="-52.43" incLanes=":J3_6_0 E6_0" intLanes=":J3_0_0 :J3_1_0 :J3_3_0 :J3_4_0 :J3_8_0"/>
    <junction id=":J4_12_0" type="internal" x="107.37" y="9.43" incLanes=":J4_2_0 E8_0" intLanes=":J4_4_0 :J4_5_0 :J4_6_0 :J4_7_0 :J4_10_0 :J4_11_0"/>
    <junction id=":J4_13_0" type="internal" x="103.24" y="3.22" incLanes=":J4_8_0 E3_0" intLanes=":J4_0_0 :J4_1_0 :J4_4_0 :J4_5_0 :J4_10_0 :J4_11_0"/>

    <connection from="-E1" to="-E4" fromLane="0" toLane="0" via=":J1_0_0" dir="l" state="m"/>
    <connection from="-E2" to="-E1" fromLane="0" toLane="0" via=":J2_0_0" dir="L" state="M"/>
    <connection from="-E2" to="E3" fromLane="0" toLane="0" via=":J2_1_0" dir="l" state="m"/>
    <connection from="-E3" to="E2" fromLane="0" toLane="0" via=":J2_2_0" dir="r" state="m"/>
    <connection from="-E3" to="-E1" fromLane="0" toLane="0" via=":J2_3_0" dir="l" state="m"/>
    <connection from="-E4" to="-E8" fromLane="0" toLane="0" via=":J4_9_0" dir="r" state="m"/>
    <connection from="-E4" to="-E5" fromLane="0" toLane="0" via=":J4_10_0" dir="s" state="m"/>
    <connection from="-E4" to="-E3" fromLane="0" toLane="0" via=":J4_11_0" dir="l" state="m"/>
    <connection from="-E5" to="E7" fromLane="0" toLane="0" via=":J3_7_0" dir="r" state="m"/>
    <connection from="-E5" to="-E2" fromLane="0" toLane="0" via=":J3_8_0" dir="l" state="m"/>
    <connection from="-E7" to="-E2" fromLane="0" toLane="0" via=":J3_5_0" dir="L" state="m"/>
    <connection from="-E7" to="E5" fromLane="0" toLane="0" via=":J3_6_0" dir="l" state="m"/>
    <connection from="-E8" to="-E7" fromLane="0" toLane="0" via=":J6_0_0" dir="l" state="M"/>
    <connection from="E0" to="-E4" fromLane="0" toLane="0" via=":J1_2_0" dir="R" state="M"/>
    <connection from="E0" to="E1" fromLane="0" toLane="0" via=":J1_3_0" dir="s" state="M"/>
    <connection from="E1" to="E3" fromLane="0" toLane="0" via=":J2_4_0" dir="r" state="M"/>
    <connection from="E1" to="E2" fromLane="0" toLane="0" via=":J2_5_0" dir="R" state="M"/>
    <connection from="E2" to="E5" fromLane="0" toLane="0" via=":J3_0_0" dir="r" state="m"/>
    <connection from="E2" to="E7" fromLane="0" toLane="0" via=":J3_1_0" dir="R" state="m"/>
    <connection from="E3" to="E4" fromLane="0" toLane="0" via=":J4_0_0" dir="r" state="M"/>
    <connection from="E3" to="-E8" fromLane="0" toLane="0" via=":J4_1_0" dir="s" state="M"/>
    <connection from="E3" to="-E5" fromLane="0" toLane="0" via=":J4_2_0" dir="l" state="m"/>
    <connection from="E4" to="E1" fromLane="0" toLane="0" via=":J1_1_0" dir="r" state="m"/>
    <connection from="E5" to="-E3" fromLane="0" toLane="0" via=":J4_3_0" dir="r" state="m"/>
    <connection from="E5" to="E4" fromLane="0" toLane="0" via=":J4_4_0" dir="s" state="m"/>
    <connection from="E5" to="-E8" fromLane="0" toLane="0" via=":J4_5_0" dir="l" state="m"/>
    <connection from="E6" to="-E2" fromLane="0" toLane="0" via=":J3_2_0" dir="r" state="M"/>
    <connection from="E6" to="E5" fromLane="0" toLane="0" via=":J3_3_0" dir="R" state="M"/>
    <connection from="E6" to="E7" fromLane="0" toLane="0" via=":J3_4_0" dir="s" state="M"/>
    <connection from="E7" to="E8" fromLane="0" toLane="0" via=":J6_1_0" dir="r" state="M"/>
    <connection from="E8" to="-E5" fromLane="0" toLane="0" via=":J4_6_0" dir="r" state="M"/>
    <connection from="E8" to="-E3" fromLane="0" toLane="0" via=":J4_7_0" dir="s" state="M"/>
    <connection from="E8" to="E4" fromLane="0" toLane="0" via=":J4_8_0" dir="l" state="m"/>

    <connection from=":J1_0" to="-E4" fromLane="0" toLane="0" via=":J1_4_0" dir="l" state="m"/>
    <connection from=":J1_4" to="-E4" fromLane="0" toLane="0" dir="l" state="M"/>
    <connection from=":J1_1" to="E1" fromLane="0" toLane="0" dir="r" state="M"/>
    <connection from=":J1_2" to="-E4" fromLane="0" toLane="0" dir="R" state="M"/>
    <connection from=":J1_3" to="E1" fromLane="0" toLane="0" dir="s" state="M"/>
    <connection from=":J2_0" to="-E1" fromLane="0" toLane="0" dir="L" state="M"/>
    <connection from=":J2_1" to="E3" fromLane="0" toLane="0" via=":J2_6_0" dir="l" state="m"/>
    <connection from=":J2_6" to="E3" fromLane="0" toLane="0" dir="l" state="M"/>
    <connection from=":J2_2" to="E2" fromLane="0" toLane="0" dir="r" state="M"/>
    <connection from=":J2_3" to="-E1" fromLane="0" toLane="0" dir="l" state="M"/>
    <connection from=":J2_4" to="E3" fromLane="0" toLane="0" dir="r" state="M"/>
    <connection from=":J2_5" to="E2" fromLane="0" toLane="0" dir="R" state="M"/>
    <connection from=":J3_0" to="E5" fromLane="0" toLane="0" dir="r" state="M"/>
    <connection from=":J3_1" to="E7" fromLane="0" toLane="0" dir="R" state="M"/>
    <connection from=":J3_2" to="-E2" fromLane="0" toLane="0" dir="r" state="M"/>
    <connection from=":J3_3" to="E5" fromLane="0" toLane="0" dir="R" state="M"/>
    <connection from=":J3_4" to="E7" fromLane="0" toLane="0" dir="s" state="M"/>
    <connection from=":J3_5" to="-E2" fromLane="0" toLane="0" via=":J3_9_0" dir="L" state="m"/>
    <connection from=":J3_9" to="-E2" fromLane="0" toLane="0" dir="L" state="M"/>
    <connection from=":J3_6" to="E5" fromLane="0" toLane="0" via=":J3_10_0" dir="l" state="m"/>
    <connection from=":J3_10" to="E5" fromLane="0" toLane="0" dir="l" state="M"/>
    <connection from=":J3_7" to="E7" fromLane="0" toLane="0" dir="r" state="M"/>
    <connection from=":J3_8" to="-E2" fromLane="0" toLane="0" dir="l" state="M"/>
    <connection from=":J4_0" to="E4" fromLane="0" toLane="0" dir="r" state="M"/>
    <connection from=":J4_1" to="-E8" fromLane="0" toLane="0" dir="s" state="M"/>
    <connection from=":J4_2" to="-E5" fromLane="0" toLane="0" via=":J4_12_0" dir="l" state="m"/>
    <connection from=":J4_12" to="-E5" fromLane="0" toLane="0" dir="l" state="M"/>
    <connection from=":J4_3" to="-E3" fromLane="0" toLane="0" dir="r" state="M"/>
    <connection from=":J4_4" to="E4" fromLane="0" toLane="0" dir="s" state="M"/>
    <connection from=":J4_5" to="-E8" fromLane="0" toLane="0" dir="l" state="M"/>
    <connection from=":J4_6" to="-E5" fromLane="0" toLane="0" dir="r" state="M"/>
    <connection from=":J4_7" to="-E3" fromLane="0" toLane="0" dir="s" state="M"/>
    <connection from=":J4_8" to="E4" fromLane="0" toLane="0" via=":J4_13_0" dir="l" state="m"/>
    <connection from=":J4_13" to="E4" fromLane="0" toLane="0" dir="l" state="M"/>
    <connection from=":J4_9" to="-E8" fromLane="0" toLane="0" dir="r" state="M"/>
    <connection from=":J4_10" to="-E5" fromLane="0" toLane="0" dir="s" state="M"/>
    <connection from=":J4_11" to="-E3" fromLane="0" toLane="0" dir="l" state="M"/>
    <connection from=":J6_0" to="-E7" fromLane="0" toLane="0" dir="l" state="M"/>
    <connection from=":J6_1" to="E8" fromLane="0" toLane="0" dir="r" state="M"/>

</net>
