<?xml version="1.0" encoding="UTF-8"?>
<!-- generated on 2023-11-15 14:45:18 by Eclipse SUMO netedit Version 1.18.0
-->

<routes xmlns:xsi="http://www.w3.org/2001/XMLSchema-instance" xsi:noNamespaceSchemaLocation="http://sumo.dlr.de/xsd/routes_file.xsd">
    <!-- Routes -->
        
        <route id="br_tl" edges="-E11 E8 -E3 E10" color="cyan"/>
        <route id="tr_bl" edges="E0 -E4 -E5 -E6" color="cyan"/> 
    <vType id="typeWE" accel="0.8" decel="4.5" sigma="0.5" length="5" minGap="2.5" maxSpeed="10" guiShape="passenger"/>
    
    <vehicle id="1" type="typeWE" route="br_tl" depart="0" /><vehicle id="2" type="typeWE" route="br_tl" depart="0" /><vehicle id="3" type="typeWE" route="br_tl" depart="0" /><vehicle id="4" type="typeWE" route="br_tl" depart="0" /><vehicle id="5" type="typeWE" route="br_tl" depart="0" /><vehicle id="6" type="typeWE" route="tr_bl" depart="0" /><vehicle id="7" type="typeWE" route="tr_bl" depart="0" /><vehicle id="8" type="typeWE" route="tr_bl" depart="0" /><vehicle id="9" type="typeWE" route="tr_bl" depart="0" /><vehicle id="10" type="typeWE" route="tr_bl" depart="0" />
</routes>