<?xml version="1.0" encoding="UTF-8"?>
<routes>
    <!-- You can add your specific XML nodes and data here -->
</routes>
