<?xml version="1.0" encoding="UTF-8"?>

<routes>
        <vType id="typeWE" accel="0.8" decel="4.5" sigma="0.5" length="5" minGap="2.5" maxSpeed="16.67" guiShape="passenger"/>
        
        <trip id="t_0" depart="0.00" from="start_e" to="end_e"/>

</routes>
               