<?xml version="1.0" encoding="UTF-8"?>

<!-- generated on 2023-11-03 12:25:15 by Eclipse SUMO netedit Version 1.18.0
<configuration xmlns:xsi="http://www.w3.org/2001/XMLSchema-instance" xsi:noNamespaceSchemaLocation="http://sumo.dlr.de/xsd/neteditConfiguration.xsd">

    <input>
        <sumo-net-file value="/Users/cianmurphy/code_directories/final_year_project/Experiments/Exp3/exp3.net.xml"/>
    </input>

    <output>
        <output-file value="/Users/cianmurphy/code_directories/final_year_project/Experiments/Exp3/exp3.net.xml"/>
    </output>

    <processing>
        <offset.disable-normalization value="true"/>
    </processing>

    <junctions>
        <no-turnarounds value="true"/>
    </junctions>

    <netedit>
        <new-network value="false"/>
    </netedit>

</configuration>
-->

<net version="1.16" junctionCornerDetail="5" limitTurnSpeed="5.50" xmlns:xsi="http://www.w3.org/2001/XMLSchema-instance" xsi:noNamespaceSchemaLocation="http://sumo.dlr.de/xsd/net_file.xsd">

    <location netOffset="0.00,0.00" convBoundary="-45.90,25.72,265.10,97.39" origBoundary="10000000000.00,10000000000.00,-10000000000.00,-10000000000.00" projParameter="!"/>

    <edge id=":J0_0" function="internal">
        <lane id=":J0_0_0" index="0" speed="7.44" length="16.38" shape="-1.55,64.84 -5.19,61.62 -6.33,58.49 -4.98,55.44 -1.15,52.47"/>
    </edge>
    <edge id=":J0_1" function="internal">
        <lane id=":J0_1_0" index="0" speed="5.74" length="9.18" shape="0.45,55.24 -1.70,56.91 -2.46,58.62 -1.81,60.37 0.22,62.17"/>
    </edge>
    <edge id=":J0_2" function="internal">
        <lane id=":J0_2_0" index="0" speed="13.89" length="17.62" shape="-18.09,56.77 -13.94,56.46 -9.37,55.57 -4.92,54.20 -1.15,52.47"/>
    </edge>
    <edge id=":J0_3" function="internal">
        <lane id=":J0_3_0" index="0" speed="13.89" length="19.26" shape="-18.09,56.77 -13.70,57.24 -8.62,58.44 -3.69,60.16 0.22,62.17"/>
    </edge>
    <edge id=":J1_0" function="internal">
        <lane id=":J1_0_0" index="0" speed="13.89" length="17.63" shape="56.83,98.72 52.74,98.18 48.31,96.80 44.03,94.90 40.41,92.81"/>
    </edge>
    <edge id=":J1_1" function="internal">
        <lane id=":J1_1_0" index="0" speed="8.68" length="4.45" shape="56.83,98.72 53.02,97.98 52.58,97.63"/>
    </edge>
    <edge id=":J1_6" function="internal">
        <lane id=":J1_6_0" index="0" speed="8.68" length="12.14" shape="52.58,97.63 50.26,95.78 48.57,92.12 47.93,87.01"/>
    </edge>
    <edge id=":J1_2" function="internal">
        <lane id=":J1_2_0" index="0" speed="7.33" length="11.54" shape="51.13,86.96 51.55,90.70 52.64,93.37 54.40,94.98 56.85,95.52"/>
    </edge>
    <edge id=":J1_3" function="internal">
        <lane id=":J1_3_0" index="0" speed="7.38" length="17.43" shape="51.13,86.96 50.55,92.26 48.57,95.00 45.19,95.19 40.41,92.81"/>
    </edge>
    <edge id=":J1_4" function="internal">
        <lane id=":J1_4_0" index="0" speed="5.59" length="9.34" shape="42.19,90.15 44.75,91.42 46.56,91.32 47.62,89.85 47.93,87.01"/>
    </edge>
    <edge id=":J1_5" function="internal">
        <lane id=":J1_5_0" index="0" speed="13.89" length="15.80" shape="42.19,90.15 45.53,92.16 49.20,93.87 53.03,95.06 56.85,95.52"/>
    </edge>
    <edge id=":J2_0" function="internal">
        <lane id=":J2_0_0" index="0" speed="13.89" length="18.93" shape="124.20,98.88 105.28,98.96"/>
    </edge>
    <edge id=":J2_1" function="internal">
        <lane id=":J2_1_0" index="0" speed="9.66" length="5.08" shape="124.20,98.88 119.18,98.19"/>
    </edge>
    <edge id=":J2_2" function="internal">
        <lane id=":J2_2_0" index="0" speed="7.46" length="6.04" shape="124.20,98.88 118.20,98.25"/>
    </edge>
    <edge id=":J2_12" function="internal">
        <lane id=":J2_12_0" index="0" speed="9.66" length="16.59" shape="119.18,98.19 118.36,98.08 114.22,95.55 111.80,91.30 111.09,85.32"/>
    </edge>
    <edge id=":J2_13" function="internal">
        <lane id=":J2_13_0" index="0" speed="7.46" length="13.48" shape="118.20,98.25 118.06,98.24 115.27,96.16 115.84,92.65 119.75,87.71"/>
    </edge>
    <edge id=":J2_3" function="internal">
        <lane id=":J2_3_0" index="0" speed="5.51" length="9.92" shape="122.03,89.96 120.01,92.49 119.70,94.29 121.09,95.35 124.18,95.68"/>
    </edge>
    <edge id=":J2_4" function="internal">
        <lane id=":J2_4_0" index="0" speed="13.89" length="19.48" shape="122.03,89.96 117.63,93.91 113.37,96.72 109.25,98.41 105.28,98.96"/>
    </edge>
    <edge id=":J2_5" function="internal">
        <lane id=":J2_5_0" index="0" speed="7.44" length="19.68" shape="122.03,89.96 117.11,93.95 113.65,94.51 111.64,91.63 111.09,85.32"/>
    </edge>
    <edge id=":J2_6" function="internal">
        <lane id=":J2_6_0" index="0" speed="5.47" length="9.83" shape="114.29,85.39 114.57,88.54 115.57,89.98 117.30,89.70 119.75,87.71"/>
    </edge>
    <edge id=":J2_7" function="internal">
        <lane id=":J2_7_0" index="0" speed="8.47" length="16.39" shape="114.29,85.39 114.82,89.93 116.65,93.16 119.77,95.08 124.18,95.68"/>
    </edge>
    <edge id=":J2_8" function="internal">
        <lane id=":J2_8_0" index="0" speed="9.06" length="18.26" shape="114.29,85.39 113.62,91.34 111.89,95.59 109.11,98.12 105.28,98.96"/>
    </edge>
    <edge id=":J2_9" function="internal">
        <lane id=":J2_9_0" index="0" speed="7.79" length="13.22" shape="105.29,95.76 107.74,95.11 109.53,93.16 110.64,89.90 111.09,85.32"/>
    </edge>
    <edge id=":J2_10" function="internal">
        <lane id=":J2_10_0" index="0" speed="13.37" length="16.94" shape="105.29,95.76 108.62,95.26 112.14,93.76 115.85,91.24 119.75,87.71"/>
    </edge>
    <edge id=":J2_11" function="internal">
        <lane id=":J2_11_0" index="0" speed="13.89" length="18.89" shape="105.29,95.76 124.18,95.68"/>
    </edge>
    <edge id=":J3_0" function="internal">
        <lane id=":J3_0_0" index="0" speed="13.89" length="18.95" shape="193.86,89.67 190.50,92.53 186.17,95.35 181.57,97.52 177.38,98.41"/>
    </edge>
    <edge id=":J3_1" function="internal">
        <lane id=":J3_1_0" index="0" speed="7.41" length="7.04" shape="193.86,89.67 189.13,93.47 188.17,93.62"/>
    </edge>
    <edge id=":J3_6" function="internal">
        <lane id=":J3_6_0" index="0" speed="7.41" length="12.04" shape="188.17,93.62 185.70,94.00 183.57,91.26 182.74,85.25"/>
    </edge>
    <edge id=":J3_2" function="internal">
        <lane id=":J3_2_0" index="0" speed="5.48" length="9.68" shape="185.94,85.17 186.36,88.23 187.44,89.62 189.18,89.35 191.58,87.42"/>
    </edge>
    <edge id=":J3_3" function="internal">
        <lane id=":J3_3_0" index="0" speed="8.86" length="17.83" shape="185.94,85.17 185.52,90.93 183.95,95.06 181.24,97.55 177.38,98.41"/>
    </edge>
    <edge id=":J3_4" function="internal">
        <lane id=":J3_4_0" index="0" speed="7.55" length="12.67" shape="177.35,95.21 179.80,94.56 181.51,92.69 182.49,89.59 182.74,85.25"/>
    </edge>
    <edge id=":J3_5" function="internal">
        <lane id=":J3_5_0" index="0" speed="13.40" length="16.56" shape="177.35,95.21 181.19,94.47 185.02,92.63 188.58,90.13 191.58,87.42"/>
    </edge>
    <edge id=":J4_0" function="internal">
        <lane id=":J4_0_0" index="0" speed="5.69" length="9.22" shape="47.03,35.17 46.62,32.44 45.49,30.97 43.65,30.76 41.10,31.81"/>
    </edge>
    <edge id=":J4_1" function="internal">
        <lane id=":J4_1_0" index="0" speed="10.25" length="24.54" shape="47.03,35.17 48.15,30.34 51.68,26.93 57.64,24.94 66.01,24.36"/>
    </edge>
    <edge id=":J4_2" function="internal">
        <lane id=":J4_2_0" index="0" speed="8.59" length="22.79" shape="47.03,35.17 48.48,29.88 52.51,28.31 58.23,29.47 64.76,32.37"/>
    </edge>
    <edge id=":J4_3" function="internal">
        <lane id=":J4_3_0" index="0" speed="7.23" length="15.69" shape="63.28,35.21 57.53,32.64 53.44,31.77 51.00,32.59 50.23,35.12"/>
    </edge>
    <edge id=":J4_4" function="internal">
        <lane id=":J4_4_0" index="0" speed="13.32" length="23.28" shape="63.28,35.21 56.36,32.12 50.35,30.52 45.26,30.42 41.10,31.81"/>
    </edge>
    <edge id=":J4_5" function="internal">
        <lane id=":J4_5_0" index="0" speed="6.26" length="15.30" shape="63.28,35.21 60.51,32.29 60.25,28.68 62.19,25.62 66.01,24.36"/>
    </edge>
    <edge id=":J4_6" function="internal">
        <lane id=":J4_6_0" index="0" speed="5.60" length="11.84" shape="65.97,27.56 61.86,27.81 60.28,28.69 61.25,30.21 64.76,32.37"/>
    </edge>
    <edge id=":J4_7" function="internal">
        <lane id=":J4_7_0" index="0" speed="9.16" length="19.37" shape="65.97,27.56 59.03,27.95 54.10,29.34 51.17,31.73 50.23,35.12"/>
    </edge>
    <edge id=":J4_8" function="internal">
        <lane id=":J4_8_0" index="0" speed="13.89" length="25.34" shape="65.97,27.56 60.58,27.84 53.28,28.72 46.11,30.08 41.10,31.81"/>
    </edge>
    <edge id=":J4_9" function="internal">
        <lane id=":J4_9_0" index="0" speed="13.89" length="27.03" shape="39.50,29.04 44.77,27.24 52.51,25.74 60.37,24.71 66.01,24.36"/>
    </edge>
    <edge id=":J4_10" function="internal">
        <lane id=":J4_10_0" index="0" speed="13.89" length="7.90" shape="39.50,29.04 44.43,27.32 47.11,27.31"/>
    </edge>
    <edge id=":J4_11" function="internal">
        <lane id=":J4_11_0" index="0" speed="7.41" length="7.22" shape="39.50,29.04 44.12,27.14 46.33,27.40"/>
    </edge>
    <edge id=":J4_12" function="internal">
        <lane id=":J4_12_0" index="0" speed="13.89" length="18.56" shape="47.11,27.31 50.28,27.30 57.06,28.98 64.76,32.37"/>
    </edge>
    <edge id=":J4_13" function="internal">
        <lane id=":J4_13_0" index="0" speed="7.41" length="9.46" shape="46.33,27.40 47.44,27.53 49.48,30.18 50.23,35.12"/>
    </edge>
    <edge id=":J5_0" function="internal">
        <lane id=":J5_0_0" index="0" speed="13.89" length="14.99" shape="115.22,50.38 114.72,65.37"/>
    </edge>
    <edge id=":J5_1" function="internal">
        <lane id=":J5_1_0" index="0" speed="7.45" length="4.65" shape="115.22,50.38 114.40,54.96"/>
    </edge>
    <edge id=":J5_6" function="internal">
        <lane id=":J5_6_0" index="0" speed="7.45" length="11.59" shape="114.40,54.96 114.37,55.10 112.30,57.70 109.01,58.21 104.50,56.60"/>
    </edge>
    <edge id=":J5_2" function="internal">
        <lane id=":J5_2_0" index="0" speed="5.77" length="9.16" shape="105.97,53.76 108.52,54.67 110.38,54.38 111.54,52.91 112.02,50.25"/>
    </edge>
    <edge id=":J5_3" function="internal">
        <lane id=":J5_3_0" index="0" speed="10.17" length="15.32" shape="105.97,53.76 109.86,56.22 112.61,58.97 114.23,62.02 114.72,65.37"/>
    </edge>
    <edge id=":J5_4" function="internal">
        <lane id=":J5_4_0" index="0" speed="8.96" length="11.76" shape="111.52,65.30 111.12,62.88 109.82,60.62 107.61,58.53 104.50,56.60"/>
    </edge>
    <edge id=":J5_5" function="internal">
        <lane id=":J5_5_0" index="0" speed="13.89" length="15.05" shape="111.52,65.30 112.02,50.25"/>
    </edge>
    <edge id=":J6_0" function="internal">
        <lane id=":J6_0_0" index="0" speed="13.89" length="14.98" shape="220.58,48.93 223.86,50.73 227.37,52.01 231.04,52.79 234.78,53.06"/>
    </edge>
    <edge id=":J6_1" function="internal">
        <lane id=":J6_1_0" index="0" speed="7.69" length="15.00" shape="220.58,48.93 223.75,51.74 225.02,54.74 224.40,57.95 221.88,61.35"/>
    </edge>
    <edge id=":J6_2" function="internal">
        <lane id=":J6_2_0" index="0" speed="6.12" length="9.06" shape="219.60,59.10 221.12,57.05 221.50,55.11 220.73,53.29 218.82,51.60"/>
    </edge>
    <edge id=":J6_3" function="internal">
        <lane id=":J6_3_0" index="0" speed="13.30" length="2.90" shape="219.60,59.10 221.84,57.25"/>
    </edge>
    <edge id=":J6_4" function="internal">
        <lane id=":J6_4_0" index="0" speed="13.30" length="13.88" shape="221.84,57.25 222.81,56.44 226.42,54.54 230.41,53.42 234.78,53.06"/>
    </edge>
    <edge id=":J7_0" function="internal">
        <lane id=":J7_0_0" index="0" speed="6.69" length="9.23" shape="121.65,28.18 119.22,28.56 117.45,29.66 116.34,31.47 115.89,33.99"/>
    </edge>
    <edge id=":J7_1" function="internal">
        <lane id=":J7_1_0" index="0" speed="13.89" length="14.37" shape="121.65,28.18 107.28,28.14"/>
    </edge>
    <edge id=":J7_2" function="internal">
        <lane id=":J7_2_0" index="0" speed="13.89" length="14.29" shape="107.33,24.94 121.62,24.98"/>
    </edge>
    <edge id=":J7_3" function="internal">
        <lane id=":J7_3_0" index="0" speed="7.95" length="3.93" shape="107.33,24.94 111.21,25.55"/>
    </edge>
    <edge id=":J7_6" function="internal">
        <lane id=":J7_6_0" index="0" speed="7.95" length="10.36" shape="111.21,25.55 113.93,27.27 115.49,30.08 115.89,33.99"/>
    </edge>
    <edge id=":J7_4" function="internal">
        <lane id=":J7_4_0" index="0" speed="6.45" length="9.03" shape="112.69,33.86 112.44,31.39 111.46,29.61 109.74,28.53 107.28,28.14"/>
    </edge>
    <edge id=":J7_5" function="internal">
        <lane id=":J7_5_0" index="0" speed="8.15" length="14.20" shape="112.69,33.86 113.39,30.00 115.11,27.24 117.85,25.56 121.62,24.98"/>
    </edge>
    <edge id=":J8_0" function="internal">
        <lane id=":J8_0_0" index="0" speed="5.52" length="9.82" shape="181.63,37.61 181.20,34.57 180.09,33.21 178.30,33.53 175.83,35.53"/>
    </edge>
    <edge id=":J8_1" function="internal">
        <lane id=":J8_1_0" index="0" speed="8.58" length="16.31" shape="181.63,37.61 180.89,33.26 178.91,30.17 175.68,28.33 171.22,27.74"/>
    </edge>
    <edge id=":J8_2" function="internal">
        <lane id=":J8_2_0" index="0" speed="7.57" length="18.40" shape="181.63,37.61 182.17,31.68 184.12,28.48 187.49,28.01 192.28,30.27"/>
    </edge>
    <edge id=":J8_3" function="internal">
        <lane id=":J8_3_0" index="0" speed="5.84" length="10.33" shape="190.52,32.94 187.96,31.77 186.15,32.15 185.11,34.07 184.83,37.54"/>
    </edge>
    <edge id=":J8_4" function="internal">
        <lane id=":J8_4_0" index="0" speed="9.23" length="16.35" shape="190.52,32.94 186.85,31.29 183.18,31.17 179.50,32.58 175.83,35.53"/>
    </edge>
    <edge id=":J8_5" function="internal">
        <lane id=":J8_5_0" index="0" speed="13.89" length="20.16" shape="190.52,32.94 186.45,30.96 181.18,29.29 175.75,28.15 171.22,27.74"/>
    </edge>
    <edge id=":J8_6" function="internal">
        <lane id=":J8_6_0" index="0" speed="13.89" length="22.01" shape="171.19,24.54 176.01,25.03 182.04,26.36 187.93,28.21 192.28,30.27"/>
    </edge>
    <edge id=":J8_7" function="internal">
        <lane id=":J8_7_0" index="0" speed="9.77" length="7.45" shape="171.19,24.54 177.04,25.31 178.39,26.08"/>
    </edge>
    <edge id=":J8_8" function="internal">
        <lane id=":J8_8_0" index="0" speed="7.43" length="7.71" shape="171.19,24.54 177.34,25.18 178.57,26.07"/>
    </edge>
    <edge id=":J8_12" function="internal">
        <lane id=":J8_12_0" index="0" speed="9.77" length="13.96" shape="178.39,26.08 181.27,27.73 183.86,31.81 184.83,37.54"/>
    </edge>
    <edge id=":J8_13" function="internal">
        <lane id=":J8_13_0" index="0" speed="7.43" length="11.64" shape="178.57,26.07 180.17,27.22 179.66,30.67 175.83,35.53"/>
    </edge>
    <edge id=":J8_9" function="internal">
        <lane id=":J8_9_0" index="0" speed="5.47" length="9.75" shape="173.56,33.28 175.49,30.83 175.74,29.09 174.32,28.06 171.22,27.74"/>
    </edge>
    <edge id=":J8_10" function="internal">
        <lane id=":J8_10_0" index="0" speed="10.36" length="20.80" shape="173.56,33.28 178.17,29.60 182.83,27.88 187.54,28.10 192.28,30.27"/>
    </edge>
    <edge id=":J8_11" function="internal">
        <lane id=":J8_11_0" index="0" speed="7.44" length="19.22" shape="173.56,33.28 178.35,29.40 181.83,28.82 183.99,31.53 184.83,37.54"/>
    </edge>

    <edge id="-E0" from="J1" to="J0" priority="-1">
        <lane id="-E0_0" index="0" speed="13.89" length="50.44" shape="40.41,92.81 -1.55,64.84"/>
    </edge>
    <edge id="-E1" from="J3" to="J2" priority="-1">
        <lane id="-E1_0" index="0" speed="13.89" length="53.18" shape="177.38,98.41 124.20,98.88"/>
    </edge>
    <edge id="-E10" from="J8" to="J7" priority="-1">
        <lane id="-E10_0" index="0" speed="13.89" length="49.57" shape="171.22,27.74 121.65,28.18"/>
    </edge>
    <edge id="-E11" from="J3" to="J8" priority="-1">
        <lane id="-E11_0" index="0" speed="13.89" length="47.65" shape="182.74,85.25 181.63,37.61"/>
    </edge>
    <edge id="-E12" from="J8" to="J2" priority="-1">
        <lane id="-E12_0" index="0" speed="13.89" length="76.53" shape="175.83,35.53 122.03,89.96"/>
    </edge>
    <edge id="-E13" from="J6" to="J8" priority="-1">
        <lane id="-E13_0" index="0" speed="13.89" length="33.89" shape="218.82,51.60 190.52,32.94"/>
    </edge>
    <edge id="-E2" from="J2" to="J1" priority="-1">
        <lane id="-E2_0" index="0" speed="13.89" length="48.44" shape="105.28,98.96 56.83,98.72"/>
    </edge>
    <edge id="-E3" from="J4" to="J1" priority="-1">
        <lane id="-E3_0" index="0" speed="13.89" length="51.85" shape="50.23,35.12 51.13,86.96"/>
    </edge>
    <edge id="-E4" from="J4" to="J0" priority="-1">
        <lane id="-E4_0" index="0" speed="13.89" length="46.92" shape="41.10,31.81 0.45,55.24"/>
    </edge>
    <edge id="-E5" from="J5" to="J2" priority="-1">
        <lane id="-E5_0" index="0" speed="13.89" length="20.03" shape="114.72,65.37 114.29,85.39"/>
    </edge>
    <edge id="-E6" from="J5" to="J4" priority="-1">
        <lane id="-E6_0" index="0" speed="13.89" length="46.43" shape="104.50,56.60 63.28,35.21"/>
    </edge>
    <edge id="-E7" from="J6" to="J3" priority="-1">
        <lane id="-E7_0" index="0" speed="13.89" length="39.83" shape="221.88,61.35 193.86,89.67"/>
    </edge>
    <edge id="-E8" from="J7" to="J4" priority="-1">
        <lane id="-E8_0" index="0" speed="13.89" length="41.32" shape="107.28,28.14 65.97,27.56"/>
    </edge>
    <edge id="-E9" from="J5" to="J7" priority="-1">
        <lane id="-E9_0" index="0" speed="13.89" length="16.41" shape="112.02,50.25 112.69,33.86"/>
    </edge>
    <edge id="E0" from="J0" to="J1" priority="-1">
        <lane id="E0_0" index="0" speed="13.89" length="50.44" shape="0.22,62.17 42.19,90.15"/>
    </edge>
    <edge id="E1" from="J2" to="J3" priority="-1">
        <lane id="E1_0" index="0" speed="13.89" length="53.18" shape="124.18,95.68 177.35,95.21"/>
    </edge>
    <edge id="E10" from="J7" to="J8" priority="-1">
        <lane id="E10_0" index="0" speed="13.89" length="49.57" shape="121.62,24.98 171.19,24.54"/>
    </edge>
    <edge id="E11" from="J8" to="J3" priority="-1">
        <lane id="E11_0" index="0" speed="13.89" length="47.65" shape="184.83,37.54 185.94,85.17"/>
    </edge>
    <edge id="E12" from="J2" to="J8" priority="-1">
        <lane id="E12_0" index="0" speed="13.89" length="76.53" shape="119.75,87.71 173.56,33.28"/>
    </edge>
    <edge id="E13" from="J8" to="J6" priority="-1">
        <lane id="E13_0" index="0" speed="13.89" length="33.89" shape="192.28,30.27 220.58,48.93"/>
    </edge>
    <edge id="E2" from="J1" to="J2" priority="-1">
        <lane id="E2_0" index="0" speed="13.89" length="48.44" shape="56.85,95.52 105.29,95.76"/>
    </edge>
    <edge id="E3" from="J1" to="J4" priority="-1">
        <lane id="E3_0" index="0" speed="13.89" length="51.85" shape="47.93,87.01 47.03,35.17"/>
    </edge>
    <edge id="E4" from="J0" to="J4" priority="-1">
        <lane id="E4_0" index="0" speed="13.89" length="46.92" shape="-1.15,52.47 39.50,29.04"/>
    </edge>
    <edge id="E5" from="J2" to="J5" priority="-1">
        <lane id="E5_0" index="0" speed="13.89" length="20.03" shape="111.09,85.32 111.52,65.30"/>
    </edge>
    <edge id="E6" from="J4" to="J5" priority="-1">
        <lane id="E6_0" index="0" speed="13.89" length="46.43" shape="64.76,32.37 105.97,53.76"/>
    </edge>
    <edge id="E7" from="J3" to="J6" priority="-1">
        <lane id="E7_0" index="0" speed="13.89" length="39.83" shape="191.58,87.42 219.60,59.10"/>
    </edge>
    <edge id="E8" from="J4" to="J7" priority="-1">
        <lane id="E8_0" index="0" speed="13.89" length="41.32" shape="66.01,24.36 107.33,24.94"/>
    </edge>
    <edge id="E9" from="J7" to="J5" priority="-1">
        <lane id="E9_0" index="0" speed="13.89" length="16.41" shape="115.89,33.99 115.22,50.38"/>
    </edge>
    <edge id="end_e" from="J6" to="end" priority="-1">
        <lane id="end_e_0" index="0" speed="13.89" length="30.32" shape="234.78,53.06 265.10,53.24"/>
    </edge>
    <edge id="start_e" from="J10" to="J0" priority="-1">
        <lane id="start_e_0" index="0" speed="13.89" length="27.81" shape="-45.90,56.62 -18.09,56.77"/>
    </edge>

    <junction id="J0" type="priority" x="-8.28" y="58.43" incLanes="-E0_0 -E4_0 start_e_0" intLanes=":J0_0_0 :J0_1_0 :J0_2_0 :J0_3_0" shape="-2.44,66.17 1.11,60.84 -0.35,59.39 -0.52,58.68 -0.31,57.98 0.28,57.30 1.25,56.63 -1.95,51.08 -5.07,52.83 -7.48,54.00 -9.60,54.70 -11.80,55.06 -14.50,55.18 -18.08,55.17 -18.10,58.37 -14.41,58.63 -11.77,59.34 -9.72,60.47 -7.79,62.00 -5.52,63.91">
        <request index="0" response="1100" foes="1100" cont="0"/>
        <request index="1" response="1000" foes="1000" cont="0"/>
        <request index="2" response="0000" foes="0001" cont="0"/>
        <request index="3" response="0000" foes="0011" cont="0"/>
    </junction>
    <junction id="J1" type="priority" x="49.71" y="97.09" incLanes="-E2_0 -E3_0 E0_0" intLanes=":J1_0_0 :J1_6_0 :J1_2_0 :J1_3_0 :J1_4_0 :J1_5_0" shape="56.82,100.32 56.86,93.92 54.62,93.14 53.82,92.17 53.25,90.81 52.88,89.06 52.73,86.93 46.33,87.04 46.00,89.02 45.55,89.49 44.92,89.61 44.09,89.39 43.08,88.82 39.53,94.15 42.82,96.37 45.37,98.00 47.60,99.13 49.96,99.84 52.88,100.20">
        <request index="0" response="000000" foes="001000" cont="0"/>
        <request index="1" response="110000" foes="111000" cont="1"/>
        <request index="2" response="100000" foes="100000" cont="0"/>
        <request index="3" response="100011" foes="100011" cont="0"/>
        <request index="4" response="000000" foes="000010" cont="0"/>
        <request index="5" response="000000" foes="001110" cont="0"/>
    </junction>
    <junction id="J10" type="dead_end" x="-45.90" y="58.22" incLanes="" intLanes="" shape="-45.90,58.22 -45.89,55.02"/>
    <junction id="J2" type="priority" x="112.43" y="97.39" incLanes="-E1_0 -E12_0 -E5_0 E2_0" intLanes=":J2_0_0 :J2_12_0 :J2_13_0 :J2_3_0 :J2_4_0 :J2_5_0 :J2_6_0 :J2_7_0 :J2_8_0 :J2_9_0 :J2_10_0 :J2_11_0" shape="124.22,100.48 124.16,94.08 122.27,93.77 121.91,93.35 121.94,92.77 122.36,92.01 123.17,91.08 118.61,86.58 117.06,87.72 116.53,87.72 116.15,87.33 115.94,86.57 115.89,85.43 109.49,85.29 109.32,88.00 108.94,90.22 108.35,91.95 107.54,93.18 106.53,93.91 105.30,94.16 105.27,100.56">
        <request index="0"  response="000000000000" foes="000100010000" cont="0"/>
        <request index="1"  response="111000000000" foes="111100110000" cont="1"/>
        <request index="2"  response="110000000000" foes="110011110000" cont="1"/>
        <request index="3"  response="100000000000" foes="100010000000" cont="0"/>
        <request index="4"  response="100000000111" foes="100110000111" cont="0"/>
        <request index="5"  response="011000000110" foes="011110000110" cont="0"/>
        <request index="6"  response="010000000100" foes="010000000100" cont="0"/>
        <request index="7"  response="110000111100" foes="110000111100" cont="0"/>
        <request index="8"  response="110000110011" foes="110000110111" cont="0"/>
        <request index="9"  response="000000000000" foes="000000100010" cont="0"/>
        <request index="10" response="000000000000" foes="000111100110" cont="0"/>
        <request index="11" response="000000000000" foes="000110011110" cont="0"/>
    </junction>
    <junction id="J3" type="priority" x="184.61" y="96.74" incLanes="-E7_0 E11_0 E1_0" intLanes=":J3_0_0 :J3_6_0 :J3_2_0 :J3_3_0 :J3_4_0 :J3_5_0" shape="195.00,90.79 190.45,86.29 188.87,87.43 188.31,87.42 187.90,87.04 187.65,86.28 187.54,85.14 181.14,85.29 181.09,87.82 180.80,89.89 180.29,91.51 179.54,92.66 178.55,93.36 177.34,93.61 177.39,100.01 181.66,99.78 184.82,99.15 187.30,98.01 189.53,96.30 191.96,93.92">
        <request index="0" response="000000" foes="001000" cont="0"/>
        <request index="1" response="110000" foes="111000" cont="1"/>
        <request index="2" response="100000" foes="100000" cont="0"/>
        <request index="3" response="100011" foes="100011" cont="0"/>
        <request index="4" response="000000" foes="000010" cont="0"/>
        <request index="5" response="000000" foes="001110" cont="0"/>
    </junction>
    <junction id="J4" type="priority" x="48.47" y="25.72" incLanes="E3_0 -E6_0 -E8_0 E4_0" intLanes=":J4_0_0 :J4_1_0 :J4_2_0 :J4_3_0 :J4_4_0 :J4_5_0 :J4_6_0 :J4_7_0 :J4_8_0 :J4_9_0 :J4_12_0 :J4_13_0" shape="45.43,35.20 51.83,35.09 52.99,33.46 54.48,33.44 56.56,33.97 59.25,35.03 62.55,36.63 65.49,30.95 65.94,29.16 66.03,22.76 60.02,22.57 55.45,22.40 51.67,22.53 48.05,23.26 43.94,24.87 38.70,27.65 41.90,33.20 43.83,32.53 44.51,32.70 45.01,33.20 45.32,34.03">
        <request index="0"  response="000100000000" foes="000100010000" cont="0"/>
        <request index="1"  response="111100000000" foes="111100110000" cont="0"/>
        <request index="2"  response="110011000000" foes="110011110000" cont="0"/>
        <request index="3"  response="100010000000" foes="100010000000" cont="0"/>
        <request index="4"  response="100110000111" foes="100110000111" cont="0"/>
        <request index="5"  response="011110000110" foes="011110000110" cont="0"/>
        <request index="6"  response="000000000000" foes="010000000100" cont="0"/>
        <request index="7"  response="000000000000" foes="110000111100" cont="0"/>
        <request index="8"  response="000000000000" foes="110000110011" cont="0"/>
        <request index="9"  response="000000000000" foes="000000100010" cont="0"/>
        <request index="10" response="000111000000" foes="000111100110" cont="1"/>
        <request index="11" response="000110000000" foes="000110011110" cont="1"/>
    </junction>
    <junction id="J5" type="priority" x="113.25" y="59.34" incLanes="E9_0 E6_0 E5_0" intLanes=":J5_0_0 :J5_6_0 :J5_2_0 :J5_3_0 :J5_4_0 :J5_5_0" shape="116.82,50.45 110.42,50.19 109.94,52.20 109.41,52.72 108.70,52.92 107.80,52.79 106.71,52.34 103.76,58.02 105.67,59.12 107.22,60.27 108.42,61.45 109.28,62.68 109.77,63.95 109.92,65.26 116.32,65.40">
        <request index="0" response="000000" foes="001000" cont="0"/>
        <request index="1" response="110000" foes="111000" cont="1"/>
        <request index="2" response="100000" foes="100000" cont="0"/>
        <request index="3" response="100011" foes="100011" cont="0"/>
        <request index="4" response="000000" foes="000010" cont="0"/>
        <request index="5" response="000000" foes="001110" cont="0"/>
    </junction>
    <junction id="J6" type="priority" x="226.30" y="54.61" incLanes="E13_0 E7_0" intLanes=":J6_0_0 :J6_1_0 :J6_2_0 :J6_4_0" shape="234.78,54.66 234.79,51.46 231.80,51.43 229.54,51.29 227.70,50.94 225.95,50.28 223.98,49.20 221.46,47.59 217.94,52.93 219.48,54.47 219.74,55.29 219.66,56.15 219.23,57.05 218.47,57.98 223.02,62.48 225.50,60.08 227.77,58.13 229.84,56.60 231.69,55.52 233.34,54.87">
        <request index="0" response="0000" foes="1000" cont="0"/>
        <request index="1" response="0000" foes="1000" cont="0"/>
        <request index="2" response="0000" foes="0000" cont="0"/>
        <request index="3" response="0011" foes="0011" cont="1"/>
    </junction>
    <junction id="J7" type="priority" x="114.59" y="26.64" incLanes="-E10_0 E8_0 -E9_0" intLanes=":J7_0_0 :J7_1_0 :J7_2_0 :J7_6_0 :J7_4_0 :J7_5_0" shape="121.66,29.78 121.61,23.38 107.35,23.34 107.26,29.74 109.46,30.22 110.22,30.78 110.74,31.57 111.03,32.57 111.09,33.79 117.49,34.05 118.03,31.70 118.62,30.87 119.42,30.27 120.44,29.91">
        <request index="0" response="000000" foes="001000" cont="0"/>
        <request index="1" response="000000" foes="111000" cont="0"/>
        <request index="2" response="000000" foes="100000" cont="0"/>
        <request index="3" response="000011" foes="100011" cont="1"/>
        <request index="4" response="000010" foes="000010" cont="0"/>
        <request index="5" response="001110" foes="001110" cont="0"/>
    </junction>
    <junction id="J8" type="priority" x="182.96" y="26.04" incLanes="-E11_0 -E13_0 E10_0 E12_0" intLanes=":J8_0_0 :J8_1_0 :J8_2_0 :J8_3_0 :J8_4_0 :J8_5_0 :J8_6_0 :J8_12_0 :J8_13_0 :J8_9_0 :J8_10_0 :J8_11_0" shape="180.03,37.65 186.43,37.50 186.73,34.73 187.17,33.98 187.80,33.66 188.62,33.76 189.64,34.28 193.16,28.93 189.02,26.31 185.77,24.57 182.87,23.55 179.83,23.06 176.10,22.92 171.17,22.94 171.23,29.34 173.14,29.64 173.53,30.03 173.54,30.58 173.17,31.28 172.42,32.15 176.97,36.65 178.63,35.43 179.22,35.40 179.65,35.76 179.92,36.51">
        <request index="0"  response="000100010000" foes="000100010000" cont="0"/>
        <request index="1"  response="111100110000" foes="111100110000" cont="0"/>
        <request index="2"  response="110011110000" foes="110011110000" cont="0"/>
        <request index="3"  response="000000000000" foes="100010000000" cont="0"/>
        <request index="4"  response="000000000000" foes="100110000111" cont="0"/>
        <request index="5"  response="000000000000" foes="011110000110" cont="0"/>
        <request index="6"  response="000000000000" foes="010000000100" cont="0"/>
        <request index="7"  response="000000111000" foes="110000111100" cont="1"/>
        <request index="8"  response="000000110000" foes="110000110011" cont="1"/>
        <request index="9"  response="000000100000" foes="000000100010" cont="0"/>
        <request index="10" response="000111100000" foes="000111100110" cont="0"/>
        <request index="11" response="000110011000" foes="000110011110" cont="0"/>
    </junction>
    <junction id="end" type="dead_end" x="265.10" y="54.84" incLanes="end_e_0" intLanes="" shape="265.11,51.64 265.10,54.84"/>
