<?xml version="1.0" encoding="UTF-8"?>

<!-- generated on 2024-01-16 15:53:18 by Eclipse SUMO netedit Version 1.18.0
<configuration xmlns:xsi="http://www.w3.org/2001/XMLSchema-instance" xsi:noNamespaceSchemaLocation="http://sumo.dlr.de/xsd/neteditConfiguration.xsd">

    <input>
        <sumo-net-file value="/Users/cianmurphy/code_directories/final_year_project/Experiments/DalkeyOSM/dalkey.net.xml"/>
    </input>

    <output>
        <output-file value="/Users/cianmurphy/code_directories/final_year_project/Experiments/DalkeyOSM/dalkey.net.xml"/>
    </output>

    <processing>
        <geometry.min-radius.fix.railways value="false"/>
        <geometry.max-grade.fix value="false"/>
        <offset.disable-normalization value="true"/>
        <lefthand value="0"/>
    </processing>

    <junctions>
        <no-turnarounds value="true"/>
        <junctions.corner-detail value="5"/>
        <junctions.limit-turn-speed value="5.50"/>
        <rectangular-lane-cut value="0"/>
    </junctions>

    <pedestrian>
        <walkingareas value="0"/>
    </pedestrian>

</configuration>
-->

<net version="1.16" junctionCornerDetail="5" limitTurnSpeed="5.50" xmlns:xsi="http://www.w3.org/2001/XMLSchema-instance" xsi:noNamespaceSchemaLocation="http://sumo.dlr.de/xsd/net_file.xsd">

    <location netOffset="-691461.51,-5906420.99" convBoundary="0.00,0.00,2276.49,1547.00" origBoundary="-6.127705,53.272008,-6.094277,53.286285" projParameter="+proj=utm +zone=29 +ellps=WGS84 +datum=WGS84 +units=m +no_defs"/>

    <type id="highway.cycleway" priority="1" numLanes="1" speed="5.56" allow="bicycle" oneway="0" width="2.00"/>
    <type id="highway.footway" priority="1" numLanes="1" speed="2.78" allow="pedestrian" oneway="1" width="2.00"/>
    <type id="highway.path" priority="1" numLanes="1" speed="5.56" allow="pedestrian bicycle" oneway="0" width="2.00"/>
    <type id="highway.pedestrian" priority="1" numLanes="1" speed="2.78" allow="pedestrian" oneway="1" width="2.00"/>
    <type id="highway.residential" priority="3" numLanes="1" speed="13.89" disallow="tram rail_urban rail rail_electric rail_fast ship" oneway="0"/>
    <type id="highway.secondary" priority="11" numLanes="1" speed="27.78" disallow="tram rail_urban rail rail_electric rail_fast ship" oneway="0"/>
    <type id="highway.service" priority="1" numLanes="1" speed="5.56" allow="pedestrian delivery bicycle" oneway="0"/>
    <type id="highway.steps" priority="1" numLanes="1" speed="1.39" allow="pedestrian" oneway="1" width="2.00"/>
    <type id="highway.tertiary" priority="10" numLanes="1" speed="22.22" disallow="tram rail_urban rail rail_electric rail_fast ship" oneway="0"/>
    <type id="highway.unclassified" priority="4" numLanes="1" speed="13.89" disallow="tram rail_urban rail rail_electric rail_fast ship" oneway="0"/>
    <type id="railway.rail" priority="20" numLanes="1" speed="44.44" allow="rail" oneway="1"/>

    <edge id=":10007449286_0" function="internal">
        <lane id=":10007449286_0_0" index="0" disallow="tram rail_urban rail rail_electric rail_fast ship" speed="13.89" length="5.00" shape="1355.97,741.51 1354.81,746.37"/>
    </edge>
    <edge id=":10007449288_0" function="internal">
        <lane id=":10007449288_0_0" index="0" disallow="tram rail_urban rail rail_electric rail_fast ship" speed="13.89" length="5.05" shape="1363.83,736.37 1367.62,739.71"/>
    </edge>
    <edge id=":10007449290_0" function="internal">
        <lane id=":10007449290_0_0" index="0" disallow="tram rail_urban rail rail_electric rail_fast ship" speed="13.89" length="5.01" shape="1362.43,753.37 1366.73,750.80"/>
    </edge>
    <edge id=":10007449292_0" function="internal">
        <lane id=":10007449292_0_0" index="0" disallow="tram rail_urban rail rail_electric rail_fast ship" speed="11.18" length="5.02" shape="1403.10,741.14 1404.54,741.56 1405.57,741.81 1406.48,742.24 1407.55,743.22"/>
    </edge>
    <edge id=":10007449293_0" function="internal">
        <lane id=":10007449293_0_0" index="0" disallow="tram rail_urban rail rail_electric rail_fast ship" speed="13.89" length="5.00" shape="1412.28,739.47 1411.76,734.50"/>
    </edge>
    <edge id=":10007488502_0" function="internal">
        <lane id=":10007488502_0_0" index="0" disallow="tram rail_urban rail rail_electric rail_fast ship" speed="13.89" length="3.77" shape="1376.47,695.24 1372.73,695.72"/>
    </edge>
    <edge id=":10007488505_0" function="internal">
        <lane id=":10007488505_0_0" index="0" disallow="tram rail_urban rail rail_electric rail_fast ship" speed="6.75" length="9.75" shape="1408.48,697.65 1407.82,694.86 1406.55,692.95 1404.69,691.92 1402.22,691.77"/>
    </edge>
    <edge id=":10007488505_1" function="internal">
        <lane id=":10007488505_1_0" index="0" disallow="tram rail_urban rail rail_electric rail_fast ship" speed="7.18" length="11.09" shape="1408.48,697.65 1408.42,694.08 1409.16,691.44 1410.70,689.71 1413.03,688.90"/>
    </edge>
    <edge id=":10007488505_2" function="internal">
        <lane id=":10007488505_2_0" index="0" disallow="tram rail_urban rail rail_electric rail_fast ship" speed="13.89" length="11.24" shape="1413.43,692.08 1410.29,692.22 1407.83,691.97 1405.37,691.69 1402.22,691.77"/>
    </edge>
    <edge id=":10007488505_3" function="internal">
        <lane id=":10007488505_3_0" index="0" disallow="tram rail_urban rail rail_electric rail_fast ship" speed="3.65" length="1.25" shape="1413.43,692.08 1412.32,691.52"/>
    </edge>
    <edge id=":10007488505_4" function="internal">
        <lane id=":10007488505_4_0" index="0" disallow="tram rail_urban rail rail_electric rail_fast ship" speed="3.65" length="3.43" shape="1412.32,691.52 1412.14,691.43 1411.64,690.69 1411.94,689.85 1413.03,688.90"/>
    </edge>
    <edge id=":10007488506_0" function="internal">
        <lane id=":10007488506_0_0" index="0" disallow="tram rail_urban rail rail_electric rail_fast ship" speed="13.89" length="4.36" shape="1408.98,702.18 1408.50,697.85"/>
    </edge>
    <edge id=":10007488511_0" function="internal">
        <lane id=":10007488511_0_0" index="0" disallow="tram rail_urban rail rail_electric rail_fast ship" speed="13.89" length="0.10" shape="1492.55,668.40 1492.64,668.38"/>
    </edge>
    <edge id=":10007488511_1" function="internal">
        <lane id=":10007488511_1_0" index="0" disallow="tram rail_urban rail rail_electric rail_fast ship" speed="13.89" length="0.10" shape="1491.88,665.27 1491.78,665.29"/>
    </edge>
    <edge id=":10032209720_0" function="internal">
        <lane id=":10032209720_0_0" index="0" disallow="tram rail_urban rail rail_electric rail_fast ship" speed="3.65" length="4.67" shape="1591.53,480.89 1592.96,480.77 1593.77,481.15 1593.96,482.02 1593.51,483.39"/>
    </edge>
    <edge id=":10032209728_0" function="internal">
        <lane id=":10032209728_0_0" index="0" allow="pedestrian delivery bicycle" speed="5.56" length="4.66" shape="1577.16,565.06 1576.29,560.49"/>
    </edge>
    <edge id=":10032209728_1" function="internal">
        <lane id=":10032209728_1_0" index="0" allow="pedestrian delivery bicycle" speed="5.56" length="9.51" shape="1577.16,565.06 1577.11,562.65 1577.95,560.74 1579.69,559.34 1582.32,558.45"/>
    </edge>
    <edge id=":10032209728_2" function="internal">
        <lane id=":10032209728_2_0" index="0" allow="pedestrian delivery bicycle" speed="3.65" length="4.67" shape="1577.16,565.06 1577.73,563.74 1578.44,563.20 1579.30,563.44 1580.31,564.47"/>
    </edge>
    <edge id=":10032209728_3" function="internal">
        <lane id=":10032209728_3_0" index="0" allow="pedestrian delivery bicycle" speed="4.82" length="4.43" shape="1582.96,561.59 1581.64,562.01 1580.76,562.63 1580.31,563.45 1580.31,564.47"/>
    </edge>
    <edge id=":10032209728_4" function="internal">
        <lane id=":10032209728_4_0" index="0" allow="pedestrian delivery bicycle" speed="5.56" length="7.33" shape="1582.96,561.59 1580.22,562.00 1578.20,561.95 1576.89,561.45 1576.29,560.49"/>
    </edge>
    <edge id=":10032209728_5" function="internal">
        <lane id=":10032209728_5_0" index="0" allow="pedestrian delivery bicycle" speed="3.65" length="4.67" shape="1582.96,561.59 1581.63,561.05 1581.08,560.34 1581.31,559.48 1582.32,558.45"/>
    </edge>
    <edge id=":10032209728_6" function="internal">
        <lane id=":10032209728_6_0" index="0" allow="pedestrian delivery bicycle" speed="4.22" length="3.22" shape="1579.43,559.86 1582.32,558.45"/>
    </edge>
    <edge id=":10032209728_7" function="internal">
        <lane id=":10032209728_7_0" index="0" allow="pedestrian delivery bicycle" speed="5.56" length="4.69" shape="1579.43,559.86 1580.31,564.47"/>
    </edge>
    <edge id=":10032209728_8" function="internal">
        <lane id=":10032209728_8_0" index="0" allow="pedestrian delivery bicycle" speed="3.65" length="4.67" shape="1579.43,559.86 1578.88,561.20 1578.17,561.74 1577.31,561.51 1576.29,560.49"/>
    </edge>
    <edge id=":10032216036_0" function="internal">
        <lane id=":10032216036_0_0" index="0" allow="pedestrian delivery bicycle" speed="5.48" length="4.65" shape="1629.11,570.09 1628.34,569.13 1627.42,568.53 1626.35,568.30 1625.13,568.43"/>
    </edge>
    <edge id=":10032216036_1" function="internal">
        <lane id=":10032216036_1_0" index="0" allow="pedestrian delivery bicycle" speed="3.65" length="4.67" shape="1629.11,570.09 1629.17,568.64 1629.64,567.89 1630.53,567.81 1631.84,568.42"/>
    </edge>
    <edge id=":10032216036_2" function="internal">
        <lane id=":10032216036_2_0" index="0" allow="pedestrian delivery bicycle" speed="5.56" length="8.71" shape="1624.38,565.32 1626.67,565.08 1628.67,565.51 1630.40,566.63 1631.84,568.42"/>
    </edge>
    <edge id=":10032216036_3" function="internal">
        <lane id=":10032216036_3_0" index="0" allow="pedestrian delivery bicycle" speed="3.65" length="4.67" shape="1624.38,565.32 1625.73,565.82 1626.31,566.50 1626.11,567.38 1625.13,568.43"/>
    </edge>
    <edge id=":10032216037_0" function="internal">
        <lane id=":10032216037_0_0" index="0" allow="pedestrian delivery bicycle" speed="3.65" length="4.67" shape="1615.97,570.65 1614.61,570.15 1614.03,569.47 1614.24,568.59 1615.21,567.53"/>
    </edge>
    <edge id=":10032230986_0" function="internal">
        <lane id=":10032230986_0_0" index="0" allow="pedestrian delivery bicycle" speed="5.56" length="0.85" shape="1770.09,565.29 1770.75,564.74"/>
    </edge>
    <edge id=":10032230986_1" function="internal">
        <lane id=":10032230986_1_0" index="0" allow="pedestrian delivery bicycle" speed="5.56" length="0.86" shape="1768.69,562.29 1768.03,562.84"/>
    </edge>
    <edge id=":10045974980_0" function="internal">
        <lane id=":10045974980_0_0" index="0" disallow="tram rail_urban rail rail_electric rail_fast ship" speed="13.89" length="4.78" shape="1464.40,679.07 1463.15,679.76 1462.30,680.21 1461.42,680.63 1460.12,681.20"/>
    </edge>
    <edge id=":10045974980_1" function="internal">
        <lane id=":10045974980_1_0" index="0" disallow="tram rail_urban rail rail_electric rail_fast ship" speed="13.89" length="4.48" shape="1458.85,678.27 1460.07,677.73 1460.89,677.34 1461.69,676.91 1462.85,676.27"/>
    </edge>
    <edge id=":10160340149_0" function="internal">
        <lane id=":10160340149_0_0" index="0" allow="pedestrian bicycle" speed="4.64" length="4.54" width="2.00" shape="1289.59,1479.99 1288.77,1478.89 1287.88,1478.29 1286.91,1478.20 1285.86,1478.61"/>
    </edge>
    <edge id=":10160340149_1" function="internal">
        <lane id=":10160340149_1_0" index="0" allow="pedestrian bicycle" speed="6.33" length="8.75" width="2.00" shape="1289.59,1479.99 1288.44,1477.45 1288.15,1475.32 1288.73,1473.58 1290.18,1472.23"/>
    </edge>
    <edge id=":10160340149_2" function="internal">
        <lane id=":10160340149_2_0" index="0" allow="pedestrian bicycle" speed="2.89" length="2.92" width="2.00" shape="1289.59,1479.99 1289.65,1479.09 1289.95,1478.62 1290.51,1478.58 1291.32,1478.98"/>
    </edge>
    <edge id=":10160340149_3" function="internal">
        <lane id=":10160340149_3_0" index="0" allow="pedestrian bicycle" speed="4.89" length="4.57" width="2.00" shape="1291.84,1474.97 1291.02,1475.70 1290.66,1476.61 1290.76,1477.71 1291.32,1478.98"/>
    </edge>
    <edge id=":10160340149_4" function="internal">
        <lane id=":10160340149_4_0" index="0" disallow="tram rail_urban rail rail_electric rail_fast ship" speed="13.89" length="7.00" shape="1291.84,1474.97 1285.86,1478.61"/>
    </edge>
    <edge id=":10160340149_5" function="internal">
        <lane id=":10160340149_5_0" index="0" disallow="tram rail_urban rail rail_electric rail_fast ship" speed="13.89" length="7.00" shape="1284.20,1475.88 1290.18,1472.23"/>
    </edge>
    <edge id=":10160340149_6" function="internal">
        <lane id=":10160340149_6_0" index="0" allow="pedestrian bicycle" speed="6.40" length="2.37" width="2.00" shape="1284.20,1475.88 1286.11,1475.17 1286.44,1475.23"/>
    </edge>
    <edge id=":10160340149_7" function="internal">
        <lane id=":10160340149_7_0" index="0" allow="pedestrian bicycle" speed="6.40" length="6.45" width="2.00" shape="1286.44,1475.23 1287.94,1475.46 1289.68,1476.73 1291.32,1478.98"/>
    </edge>
    <edge id=":10160364899_0" function="internal">
        <lane id=":10160364899_0_0" index="0" allow="pedestrian delivery bicycle" speed="5.92" length="6.02" shape="1275.54,1433.40 1273.81,1432.62 1272.31,1432.35 1271.04,1432.60 1269.99,1433.37"/>
    </edge>
    <edge id=":10160364899_1" function="internal">
        <lane id=":10160364899_1_0" index="0" allow="pedestrian delivery bicycle" speed="6.72" length="11.34" shape="1275.54,1433.40 1273.00,1431.44 1271.90,1429.24 1272.24,1426.81 1274.04,1424.14"/>
    </edge>
    <edge id=":10160364899_2" function="internal">
        <lane id=":10160364899_2_0" index="0" allow="pedestrian delivery bicycle" speed="3.65" length="4.67" shape="1275.54,1433.40 1274.89,1432.11 1274.94,1431.22 1275.68,1430.72 1277.11,1430.61"/>
    </edge>
    <edge id=":10160364899_3" function="internal">
        <lane id=":10160364899_3_0" index="0" allow="pedestrian delivery bicycle" speed="4.84" length="5.29" shape="1276.41,1426.29 1275.57,1427.53 1275.41,1428.67 1275.93,1429.69 1277.11,1430.61"/>
    </edge>
    <edge id=":10160364899_4" function="internal">
        <lane id=":10160364899_4_0" index="0" disallow="tram rail_urban rail rail_electric rail_fast ship" speed="13.89" length="9.56" shape="1276.41,1426.29 1269.99,1433.37"/>
    </edge>
    <edge id=":10160364899_5" function="internal">
        <lane id=":10160364899_5_0" index="0" disallow="tram rail_urban rail rail_electric rail_fast ship" speed="13.89" length="9.55" shape="1267.62,1431.22 1274.04,1424.14"/>
    </edge>
    <edge id=":10160364899_6" function="internal">
        <lane id=":10160364899_6_0" index="0" allow="pedestrian delivery bicycle" speed="7.55" length="2.88" shape="1267.62,1431.22 1269.56,1429.70 1269.97,1429.59"/>
    </edge>
    <edge id=":10160364899_7" function="internal">
        <lane id=":10160364899_7_0" index="0" allow="pedestrian delivery bicycle" speed="7.55" length="7.48" shape="1269.97,1429.59 1271.79,1429.10 1274.30,1429.40 1277.11,1430.61"/>
    </edge>
    <edge id=":10160364901_0" function="internal">
        <lane id=":10160364901_0_0" index="0" allow="pedestrian delivery bicycle" speed="5.56" length="9.53" shape="1290.06,1438.21 1282.51,1444.01"/>
    </edge>
    <edge id=":10160364901_1" function="internal">
        <lane id=":10160364901_1_0" index="0" allow="pedestrian delivery bicycle" speed="5.56" length="10.33" shape="1290.06,1438.21 1287.87,1439.37 1285.57,1439.58 1283.18,1438.82 1280.69,1437.10"/>
    </edge>
    <edge id=":10160364901_2" function="internal">
        <lane id=":10160364901_2_0" index="0" allow="pedestrian delivery bicycle" speed="3.65" length="4.67" shape="1290.06,1438.21 1288.63,1438.30 1287.82,1437.91 1287.65,1437.03 1288.12,1435.67"/>
    </edge>
    <edge id=":10160364901_3" function="internal">
        <lane id=":10160364901_3_0" index="0" allow="pedestrian delivery bicycle" speed="5.56" length="5.91" shape="1282.78,1434.68 1284.28,1435.75 1285.67,1436.28 1286.95,1436.25 1288.12,1435.67"/>
    </edge>
    <edge id=":10160364901_4" function="internal">
        <lane id=":10160364901_4_0" index="0" allow="pedestrian delivery bicycle" speed="5.56" length="11.22" shape="1282.78,1434.68 1284.86,1437.08 1285.50,1439.43 1284.72,1441.74 1282.51,1444.01"/>
    </edge>
    <edge id=":10160364901_5" function="internal">
        <lane id=":10160364901_5_0" index="0" allow="pedestrian delivery bicycle" speed="3.65" length="4.67" shape="1282.78,1434.68 1283.16,1436.07 1282.94,1436.94 1282.12,1437.28 1280.69,1437.10"/>
    </edge>
    <edge id=":10160364901_6" function="internal">
        <lane id=":10160364901_6_0" index="0" allow="pedestrian delivery bicycle" speed="4.85" length="5.26" shape="1280.56,1441.48 1281.59,1440.41 1281.96,1439.33 1281.66,1438.22 1280.69,1437.10"/>
    </edge>
    <edge id=":10160364901_7" function="internal">
        <lane id=":10160364901_7_0" index="0" allow="pedestrian delivery bicycle" speed="5.56" length="9.53" shape="1280.56,1441.48 1288.12,1435.67"/>
    </edge>
    <edge id=":10160364901_8" function="internal">
        <lane id=":10160364901_8_0" index="0" allow="pedestrian delivery bicycle" speed="3.65" length="4.67" shape="1280.56,1441.48 1282.00,1441.38 1282.80,1441.77 1282.97,1442.65 1282.51,1444.01"/>
    </edge>
    <edge id=":10160364902_0" function="internal">
        <lane id=":10160364902_0_0" index="0" allow="pedestrian delivery bicycle" speed="5.56" length="0.49" shape="1269.47,1452.88 1269.35,1452.96 1269.27,1453.02 1269.20,1453.10 1269.10,1453.21"/>
    </edge>
    <edge id=":10160364902_1" function="internal">
        <lane id=":10160364902_1_0" index="0" allow="pedestrian delivery bicycle" speed="5.56" length="1.48" shape="1266.61,1451.20 1266.89,1450.86 1267.10,1450.64 1267.34,1450.46 1267.70,1450.21"/>
    </edge>
    <edge id=":10160364904_0" function="internal">
        <lane id=":10160364904_0_0" index="0" allow="pedestrian delivery bicycle" speed="3.65" length="4.67" shape="1239.75,1467.63 1238.34,1467.33 1237.67,1466.73 1237.75,1465.84 1238.57,1464.65"/>
    </edge>
    <edge id=":10160364905_0" function="internal">
        <lane id=":10160364905_0_0" index="0" allow="pedestrian delivery bicycle" speed="5.56" length="0.15" shape="1269.74,1452.70 1269.61,1452.78"/>
    </edge>
    <edge id=":10160364905_1" function="internal">
        <lane id=":10160364905_1_0" index="0" allow="pedestrian delivery bicycle" speed="5.56" length="0.28" shape="1267.85,1450.11 1268.09,1449.96"/>
    </edge>
    <edge id=":10160364906_0" function="internal">
        <lane id=":10160364906_0_0" index="0" allow="pedestrian delivery bicycle" speed="5.56" length="0.54" shape="1276.78,1448.42 1276.65,1448.52 1276.56,1448.58 1276.47,1448.64 1276.33,1448.72"/>
    </edge>
    <edge id=":10160364906_1" function="internal">
        <lane id=":10160364906_1_0" index="0" allow="pedestrian delivery bicycle" speed="5.56" length="0.18" shape="1274.68,1445.98 1274.72,1445.96 1274.76,1445.94 1274.78,1445.91 1274.83,1445.88"/>
    </edge>
    <edge id=":10160364907_0" function="internal">
        <lane id=":10160364907_0_0" index="0" allow="pedestrian delivery bicycle" speed="5.10" length="5.07" shape="1295.82,1437.80 1294.80,1436.83 1293.72,1436.40 1292.58,1436.52 1291.40,1437.18"/>
    </edge>
    <edge id=":10160364907_1" function="internal">
        <lane id=":10160364907_1_0" index="0" allow="pedestrian delivery bicycle" speed="5.56" length="9.76" shape="1295.82,1437.80 1294.75,1435.83 1294.56,1433.68 1295.27,1431.37 1296.86,1428.90"/>
    </edge>
    <edge id=":10160364907_2" function="internal">
        <lane id=":10160364907_2_0" index="0" allow="pedestrian delivery bicycle" speed="3.65" length="4.67" shape="1295.82,1437.80 1295.69,1436.37 1296.07,1435.56 1296.94,1435.37 1298.32,1435.81"/>
    </edge>
    <edge id=":10160364907_3" function="internal">
        <lane id=":10160364907_3_0" index="0" allow="pedestrian delivery bicycle" speed="5.02" length="5.02" shape="1298.84,1431.45 1297.88,1432.44 1297.47,1433.50 1297.62,1434.62 1298.32,1435.81"/>
    </edge>
    <edge id=":10160364907_4" function="internal">
        <lane id=":10160364907_4_0" index="0" allow="pedestrian delivery bicycle" speed="5.56" length="9.40" shape="1298.84,1431.45 1291.40,1437.18"/>
    </edge>
    <edge id=":10160364907_5" function="internal">
        <lane id=":10160364907_5_0" index="0" allow="pedestrian delivery bicycle" speed="3.78" length="4.73" shape="1298.84,1431.45 1297.39,1431.56 1296.57,1431.16 1296.40,1430.28 1296.86,1428.90"/>
    </edge>
    <edge id=":10160364907_6" function="internal">
        <lane id=":10160364907_6_0" index="0" allow="pedestrian delivery bicycle" speed="5.56" length="9.45" shape="1289.45,1434.65 1291.76,1433.06 1293.45,1432.08 1294.99,1430.94 1296.86,1428.90"/>
    </edge>
    <edge id=":10160364907_7" function="internal">
        <lane id=":10160364907_7_0" index="0" allow="pedestrian delivery bicycle" speed="5.56" length="10.16" shape="1289.45,1434.65 1291.85,1433.30 1294.13,1433.05 1296.28,1433.88 1298.32,1435.81"/>
    </edge>
    <edge id=":10160364907_8" function="internal">
        <lane id=":10160364907_8_0" index="0" allow="pedestrian delivery bicycle" speed="3.65" length="4.67" shape="1289.45,1434.65 1290.89,1434.55 1291.69,1434.94 1291.86,1435.82 1291.40,1437.18"/>
    </edge>
    <edge id=":10160364908_0" function="internal">
        <lane id=":10160364908_0_0" index="0" allow="pedestrian delivery bicycle" speed="3.65" length="4.67" shape="1300.66,1424.12 1302.03,1423.68 1302.91,1423.87 1303.28,1424.68 1303.16,1426.12"/>
    </edge>
    <edge id=":10160364912_0" function="internal">
        <lane id=":10160364912_0_0" index="0" allow="pedestrian delivery bicycle" speed="3.65" length="4.67" shape="1310.81,1440.65 1312.25,1440.60 1313.04,1441.02 1313.18,1441.90 1312.67,1443.25"/>
    </edge>
    <edge id=":10160403750_0" function="internal">
        <lane id=":10160403750_0_0" index="0" allow="pedestrian bicycle" speed="5.56" length="6.88" width="2.00" shape="1292.97,1497.55 1287.35,1493.58"/>
    </edge>
    <edge id=":10160403750_1" function="internal">
        <lane id=":10160403750_1_0" index="0" allow="pedestrian bicycle" speed="5.56" length="7.21" width="2.00" shape="1292.97,1497.55 1291.58,1496.19 1290.95,1494.68 1291.07,1493.04 1291.94,1491.26"/>
    </edge>
    <edge id=":10160403750_2" function="internal">
        <lane id=":10160403750_2_0" index="0" allow="pedestrian bicycle" speed="2.89" length="2.92" width="2.00" shape="1292.97,1497.55 1292.66,1496.71 1292.76,1496.16 1293.26,1495.90 1294.16,1495.94"/>
    </edge>
    <edge id=":10160403750_3" function="internal">
        <lane id=":10160403750_3_0" index="0" allow="pedestrian bicycle" speed="4.52" length="4.08" width="2.00" shape="1293.60,1492.38 1293.10,1493.39 1293.03,1494.32 1293.38,1495.17 1294.16,1495.94"/>
    </edge>
    <edge id=":10160403750_4" function="internal">
        <lane id=":10160403750_4_0" index="0" allow="pedestrian bicycle" speed="5.56" length="7.26" width="2.00" shape="1293.60,1492.38 1292.26,1493.85 1290.78,1494.54 1289.14,1494.45 1287.35,1493.58"/>
    </edge>
    <edge id=":10160403750_5" function="internal">
        <lane id=":10160403750_5_0" index="0" allow="pedestrian bicycle" speed="2.89" length="2.92" width="2.00" shape="1293.60,1492.38 1292.77,1492.72 1292.21,1492.65 1291.94,1492.16 1291.94,1491.26"/>
    </edge>
    <edge id=":10160403750_6" function="internal">
        <lane id=":10160403750_6_0" index="0" allow="pedestrian bicycle" speed="4.44" length="4.03" width="2.00" shape="1288.47,1491.93 1289.47,1492.41 1290.37,1492.46 1291.20,1492.08 1291.94,1491.26"/>
    </edge>
    <edge id=":10160403750_7" function="internal">
        <lane id=":10160403750_7_0" index="0" allow="pedestrian bicycle" speed="5.56" length="6.96" width="2.00" shape="1288.47,1491.93 1294.16,1495.94"/>
    </edge>
    <edge id=":10160403750_8" function="internal">
        <lane id=":10160403750_8_0" index="0" allow="pedestrian bicycle" speed="2.89" length="2.92" width="2.00" shape="1288.47,1491.93 1288.81,1492.76 1288.74,1493.31 1288.25,1493.59 1287.35,1493.58"/>
    </edge>
    <edge id=":10160403751_0" function="internal">
        <lane id=":10160403751_0_0" index="0" allow="pedestrian bicycle" speed="2.89" length="2.92" width="2.00" shape="1294.74,1496.37 1295.05,1497.22 1294.96,1497.77 1294.46,1498.03 1293.56,1497.99"/>
    </edge>
    <edge id=":10160403753_0" function="internal">
        <lane id=":10160403753_0_0" index="0" allow="pedestrian bicycle" speed="2.89" length="2.92" width="2.00" shape="1251.48,1506.76 1250.59,1506.62 1250.15,1506.27 1250.17,1505.71 1250.64,1504.94"/>
    </edge>
    <edge id=":10160403754_0" function="internal">
        <lane id=":10160403754_0_0" index="0" allow="pedestrian bicycle" speed="2.89" length="2.92" width="2.00" shape="1306.94,1506.68 1306.59,1505.85 1306.65,1505.29 1307.14,1505.01 1308.04,1505.00"/>
    </edge>
    <edge id=":10198295549_0" function="internal">
        <lane id=":10198295549_0_0" index="0" disallow="tram rail_urban rail rail_electric rail_fast ship" speed="13.89" length="5.04" shape="1133.38,640.15 1132.18,641.04 1131.31,641.57 1130.38,642.02 1129.04,642.67"/>
    </edge>
    <edge id=":10198295549_1" function="internal">
        <lane id=":10198295549_1_0" index="0" disallow="tram rail_urban rail rail_electric rail_fast ship" speed="13.89" length="4.68" shape="1127.60,639.81 1128.85,639.20 1129.71,638.78 1130.52,638.29 1131.62,637.46"/>
    </edge>
    <edge id=":10198295551_0" function="internal">
        <lane id=":10198295551_0_0" index="0" allow="pedestrian bicycle" speed="2.89" length="2.92" width="2.00" shape="1134.87,626.02 1135.73,625.72 1136.28,625.83 1136.52,626.33 1136.46,627.23"/>
    </edge>
    <edge id=":10198295552_0" function="internal">
        <lane id=":10198295552_0_0" index="0" allow="pedestrian bicycle" speed="2.89" length="2.92" width="2.00" shape="1131.69,633.57 1130.84,633.88 1130.29,633.79 1130.04,633.29 1130.08,632.39"/>
    </edge>
    <edge id=":10235918133_0" function="internal">
        <lane id=":10235918133_0_0" index="0" allow="pedestrian bicycle" speed="2.89" length="2.92" width="2.00" shape="810.43,809.22 809.59,808.90 809.23,808.47 809.36,807.93 809.97,807.27"/>
    </edge>
    <edge id=":11065538855_0" function="internal">
        <lane id=":11065538855_0_0" index="0" allow="pedestrian delivery bicycle" speed="3.65" length="4.67" shape="1358.58,884.80 1357.39,885.60 1356.49,885.67 1355.90,885.00 1355.62,883.58"/>
    </edge>
    <edge id=":11065538857_0" function="internal">
        <lane id=":11065538857_0_0" index="0" disallow="tram rail_urban rail rail_electric rail_fast ship" speed="13.89" length="9.48" shape="1407.81,890.85 1405.86,900.13"/>
    </edge>
    <edge id=":11065538857_1" function="internal">
        <lane id=":11065538857_1_0" index="0" allow="pedestrian delivery bicycle" speed="6.76" length="3.41" shape="1407.81,890.85 1406.78,893.70 1406.51,893.97"/>
    </edge>
    <edge id=":11065538857_7" function="internal">
        <lane id=":11065538857_7_0" index="0" allow="pedestrian delivery bicycle" speed="6.76" length="7.44" shape="1406.51,893.97 1405.10,895.41 1402.77,895.96 1399.80,895.38"/>
    </edge>
    <edge id=":11065538857_2" function="internal">
        <lane id=":11065538857_2_0" index="0" allow="pedestrian delivery bicycle" speed="4.91" length="5.17" shape="1400.86,892.36 1402.28,892.64 1403.39,892.37 1404.19,891.56 1404.68,890.20"/>
    </edge>
    <edge id=":11065538857_3" function="internal">
        <lane id=":11065538857_3_0" index="0" allow="pedestrian delivery bicycle" speed="7.22" length="10.26" shape="1400.86,892.36 1403.50,893.66 1405.21,895.39 1406.00,897.55 1405.86,900.13"/>
    </edge>
    <edge id=":11065538857_4" function="internal">
        <lane id=":11065538857_4_0" index="0" allow="pedestrian delivery bicycle" speed="3.65" length="4.67" shape="1400.86,892.36 1401.73,893.51 1401.84,894.40 1401.20,895.02 1399.80,895.38"/>
    </edge>
    <edge id=":11065538857_5" function="internal">
        <lane id=":11065538857_5_0" index="0" allow="pedestrian delivery bicycle" speed="5.51" length="5.57" shape="1402.74,899.47 1402.78,898.14 1402.30,897.02 1401.31,896.10 1399.80,895.38"/>
    </edge>
    <edge id=":11065538857_6" function="internal">
        <lane id=":11065538857_6_0" index="0" disallow="tram rail_urban rail rail_electric rail_fast ship" speed="13.89" length="9.47" shape="1402.74,899.47 1404.68,890.20"/>
    </edge>
    <edge id=":11065552267_0" function="internal">
        <lane id=":11065552267_0_0" index="0" allow="pedestrian delivery bicycle" speed="3.65" length="4.67" shape="1538.00,993.67 1536.65,994.19 1535.77,994.06 1535.35,993.27 1535.38,991.83"/>
    </edge>
    <edge id=":11065552268_0" function="internal">
        <lane id=":11065552268_0_0" index="0" allow="pedestrian delivery bicycle" speed="4.86" length="5.24" shape="1560.16,968.05 1558.99,967.14 1557.88,966.90 1556.81,967.31 1555.79,968.39"/>
    </edge>
    <edge id=":11065552268_1" function="internal">
        <lane id=":11065552268_1_0" index="0" disallow="tram rail_urban rail rail_electric rail_fast ship" speed="8.33" length="9.56" shape="1560.16,968.05 1553.41,961.28"/>
    </edge>
    <edge id=":11065552268_2" function="internal">
        <lane id=":11065552268_2_0" index="0" disallow="tram rail_urban rail rail_electric rail_fast ship" speed="8.33" length="9.67" shape="1555.64,958.97 1562.46,965.83"/>
    </edge>
    <edge id=":11065552268_3" function="internal">
        <lane id=":11065552268_3_0" index="0" allow="pedestrian delivery bicycle" speed="6.95" length="3.08" shape="1555.64,958.97 1557.16,961.02 1557.28,961.53"/>
    </edge>
    <edge id=":11065552268_7" function="internal">