<?xml version="1.0" encoding="UTF-8"?>

<!-- generated on 2023-10-24 15:50:13 by Eclipse SUMO netedit Version 1.18.0
<configuration xmlns:xsi="http://www.w3.org/2001/XMLSchema-instance" xsi:noNamespaceSchemaLocation="http://sumo.dlr.de/xsd/neteditConfiguration.xsd">

    <input>
        <sumocfg-file value="/Users/cianmurphy/code_directories/final_year_project/Experiments/Tutorials/HelloWorld2/helloworld2.sumocfg"/>
        <route-files value="/Users/cianmurphy/code_directories/final_year_project/Experiments/Tutorials/HelloWorld2/helloworld2.rou.xml"/>
        <sumo-net-file value="/Users/cianmurphy/code_directories/final_year_project/Experiments/Tutorials/HelloWorld2/helloworld2.net.xml"/>
    </input>

    <output>
        <output-file value="/Users/cianmurphy/code_directories/final_year_project/Experiments/Tutorials/HelloWorld2/helloworld2.net.xml"/>
    </output>

    <processing>
        <offset.disable-normalization value="true"/>
    </processing>

    <junctions>
        <no-turnarounds value="true"/>
    </junctions>

    <netedit>
        <new-network value="false"/>
    </netedit>

</configuration>
-->

<net version="1.16" junctionCornerDetail="5" limitTurnSpeed="5.50" xmlns:xsi="http://www.w3.org/2001/XMLSchema-instance" xsi:noNamespaceSchemaLocation="http://sumo.dlr.de/xsd/net_file.xsd">

    <location netOffset="0.00,0.00" convBoundary="-100.00,-100.00,100.00,50.00" origBoundary="10000000000.00,10000000000.00,-10000000000.00,-10000000000.00" projParameter="!"/>

    <edge id=":2_0" function="internal">
        <lane id=":2_0_0" index="0" speed="13.89" length="0.10" shape="0.00,48.40 0.00,48.40"/>
    </edge>
    <edge id=":3_0" function="internal">
        <lane id=":3_0_0" index="0" speed="3.90" length="2.58" shape="96.80,48.40 97.50,48.30 98.00,48.00 98.30,47.50 98.40,46.80"/>
    </edge>
    <edge id=":4_0" function="internal">
        <lane id=":4_0_0" index="0" speed="13.89" length="0.10" shape="98.40,-50.00 98.40,-50.00"/>
    </edge>

    <edge id="E0" from="1" to="2" priority="-1">
        <lane id="E0_0" index="0" speed="13.89" length="100.00" shape="-100.00,48.40 0.00,48.40"/>
    </edge>
    <edge id="E1" from="2" to="3" priority="-1">
        <lane id="E1_0" index="0" speed="13.89" length="96.80" shape="0.00,48.40 96.80,48.40"/>
    </edge>
    <edge id="E2" from="3" to="4" priority="-1">
        <lane id="E2_0" index="0" speed="13.89" length="96.80" shape="98.40,46.80 98.40,-50.00"/>
    </edge>
    <edge id="E3" from="4" to="5" priority="-1">
        <lane id="E3_0" index="0" speed="13.89" length="50.00" shape="98.40,-50.00 98.40,-100.00"/>
    </edge>

    <junction id="1" type="dead_end" x="-100.00" y="50.00" incLanes="" intLanes="" shape="-100.00,50.00 -100.00,46.80"/>
    <junction id="2" type="priority" x="0.00" y="50.00" incLanes="E0_0" intLanes=":2_0_0" shape="0.00,50.00 0.00,46.80 0.00,50.00">
        <request index="0" response="0" foes="0" cont="0"/>
    </junction>
    <junction id="3" type="priority" x="100.00" y="50.00" incLanes="E1_0" intLanes=":3_0_0" shape="100.00,46.80 96.80,46.80 96.80,50.00 98.58,49.64 99.20,49.20 99.64,48.58 99.91,47.78">
        <request index="0" response="0" foes="0" cont="0"/>
    </junction>
    <junction id="4" type="priority" x="100.00" y="-50.00" incLanes="E2_0" intLanes=":4_0_0" shape="96.80,-50.00 100.00,-50.00 96.80,-50.00">
        <request index="0" response="0" foes="0" cont="0"/>
    </junction>
    <junction id="5" type="dead_end" x="100.00" y="-100.00" incLanes="E3_0" intLanes="" shape="96.80,-100.00 100.00,-100.00"/>

    <connection from="E0" to="E1" fromLane="0" toLane="0" via=":2_0_0" dir="s" state="M"/>
    <connection from="E1" to="E2" fromLane="0" toLane="0" via=":3_0_0" dir="r" state="M"/>
    <connection from="E2" to="E3" fromLane="0" toLane="0" via=":4_0_0" dir="s" state="M"/>

    <connection from=":2_0" to="E1" fromLane="0" toLane="0" dir="s" state="M"/>
    <connection from=":3_0" to="E2" fromLane="0" toLane="0" dir="r" state="M"/>
    <connection from=":4_0" to="E3" fromLane="0" toLane="0" dir="s" state="M"/>

</net>
