<?xml version="1.0" encoding="UTF-8"?>

<!-- generated on 2023-10-04 17:43:21 by Eclipse SUMO netconvert Version 1.18.0
<configuration xmlns:xsi="http://www.w3.org/2001/XMLSchema-instance" xsi:noNamespaceSchemaLocation="http://sumo.dlr.de/xsd/netconvertConfiguration.xsd">

    <input>
        <osm-files value="dalkey_village.osm"/>
    </input>

    <output>
        <output-file value="dalkey_village.net.xml"/>
    </output>

    <projection>
        <proj.utm value="true"/>
    </projection>

    <processing>
        <geometry.remove value="true"/>
        <roundabouts.guess value="true"/>
    </processing>

    <tls_building>
        <tls.discard-simple value="true"/>
        <tls.join value="true"/>
        <tls.guess-signals value="true"/>
    </tls_building>

    <ramp_guessing>
        <ramps.guess value="true"/>
    </ramp_guessing>

    <junctions>
        <junctions.join value="true"/>
    </junctions>

</configuration>
-->

<net version="1.16" junctionCornerDetail="5" limitTurnSpeed="5.50" xmlns:xsi="http://www.w3.org/2001/XMLSchema-instance" xsi:noNamespaceSchemaLocation="http://sumo.dlr.de/xsd/net_file.xsd">

    <location netOffset="-691461.51,-5905583.12" convBoundary="0.00,0.00,2455.97,2383.69" origBoundary="-6.127705,53.264428,-6.087112,53.286285" projParameter="+proj=utm +zone=29 +ellps=WGS84 +datum=WGS84 +units=m +no_defs"/>

    <type id="highway.cycleway" priority="1" numLanes="1" speed="5.56" allow="bicycle" oneway="0" width="2.00"/>
    <type id="highway.footway" priority="1" numLanes="1" speed="2.78" allow="pedestrian" oneway="1" width="2.00"/>
    <type id="highway.path" priority="1" numLanes="1" speed="5.56" allow="pedestrian bicycle" oneway="0" width="2.00"/>
    <type id="highway.pedestrian" priority="1" numLanes="1" speed="2.78" allow="pedestrian" oneway="1" width="2.00"/>
    <type id="highway.residential" priority="3" numLanes="1" speed="13.89" disallow="tram rail_urban rail rail_electric rail_fast ship" oneway="0"/>
    <type id="highway.secondary" priority="11" numLanes="1" speed="27.78" disallow="tram rail_urban rail rail_electric rail_fast ship" oneway="0"/>
    <type id="highway.service" priority="1" numLanes="1" speed="5.56" allow="pedestrian delivery bicycle" oneway="0"/>
    <type id="highway.steps" priority="1" numLanes="1" speed="1.39" allow="pedestrian" oneway="1" width="2.00"/>
    <type id="highway.tertiary" priority="10" numLanes="1" speed="22.22" disallow="tram rail_urban rail rail_electric rail_fast ship" oneway="0"/>
    <type id="highway.track" priority="1" numLanes="1" speed="5.56" allow="pedestrian motorcycle moped bicycle" oneway="0"/>
    <type id="highway.unclassified" priority="4" numLanes="1" speed="13.89" disallow="tram rail_urban rail rail_electric rail_fast ship" oneway="0"/>
    <type id="railway.rail" priority="20" numLanes="1" speed="44.44" allow="rail" oneway="1"/>

    <edge id=":10007449286_0" function="internal">
        <lane id=":10007449286_0_0" index="0" disallow="tram rail_urban rail rail_electric rail_fast ship" speed="13.89" length="5.00" shape="1355.97,1579.37 1354.81,1584.24"/>
    </edge>
    <edge id=":10007449288_0" function="internal">
        <lane id=":10007449288_0_0" index="0" disallow="tram rail_urban rail rail_electric rail_fast ship" speed="13.89" length="5.05" shape="1363.83,1574.24 1367.62,1577.59"/>
    </edge>
    <edge id=":10007449290_0" function="internal">
        <lane id=":10007449290_0_0" index="0" disallow="tram rail_urban rail rail_electric rail_fast ship" speed="13.89" length="5.01" shape="1362.43,1591.24 1366.73,1588.67"/>
    </edge>
    <edge id=":10007449292_0" function="internal">
        <lane id=":10007449292_0_0" index="0" disallow="tram rail_urban rail rail_electric rail_fast ship" speed="11.18" length="5.02" shape="1403.10,1579.01 1404.54,1579.43 1405.57,1579.68 1406.49,1580.11 1407.55,1581.09"/>
    </edge>
    <edge id=":10007449293_0" function="internal">
        <lane id=":10007449293_0_0" index="0" disallow="tram rail_urban rail rail_electric rail_fast ship" speed="13.89" length="5.00" shape="1412.28,1577.35 1411.76,1572.37"/>
    </edge>
    <edge id=":10007488505_0" function="internal">
        <lane id=":10007488505_0_0" index="0" disallow="tram rail_urban rail rail_electric rail_fast ship" speed="6.75" length="9.76" shape="1408.48,1535.52 1407.82,1532.73 1406.55,1530.82 1404.69,1529.79 1402.22,1529.65"/>
    </edge>
    <edge id=":10007488505_1" function="internal">
        <lane id=":10007488505_1_0" index="0" disallow="tram rail_urban rail rail_electric rail_fast ship" speed="7.18" length="11.09" shape="1408.48,1535.52 1408.42,1531.96 1409.16,1529.31 1410.70,1527.58 1413.03,1526.77"/>
    </edge>
    <edge id=":10007488505_2" function="internal">
        <lane id=":10007488505_2_0" index="0" disallow="tram rail_urban rail rail_electric rail_fast ship" speed="13.89" length="11.25" shape="1413.43,1529.95 1410.29,1530.09 1407.83,1529.84 1405.37,1529.56 1402.22,1529.65"/>
    </edge>
    <edge id=":10007488505_3" function="internal">
        <lane id=":10007488505_3_0" index="0" disallow="tram rail_urban rail rail_electric rail_fast ship" speed="3.65" length="1.25" shape="1413.43,1529.95 1412.32,1529.39"/>
    </edge>
    <edge id=":10007488505_4" function="internal">
        <lane id=":10007488505_4_0" index="0" disallow="tram rail_urban rail rail_electric rail_fast ship" speed="3.65" length="3.43" shape="1412.32,1529.39 1412.14,1529.30 1411.64,1528.56 1411.94,1527.72 1413.03,1526.77"/>
    </edge>
    <edge id=":10007488506_0" function="internal">
        <lane id=":10007488506_0_0" index="0" disallow="tram rail_urban rail rail_electric rail_fast ship" speed="13.89" length="4.36" shape="1408.98,1540.06 1408.50,1535.72"/>
    </edge>
    <edge id=":10032209720_0" function="internal">
        <lane id=":10032209720_0_0" index="0" disallow="tram rail_urban rail rail_electric rail_fast ship" speed="3.65" length="4.67" shape="1592.42,1318.04 1593.86,1317.92 1594.67,1318.30 1594.85,1319.18 1594.41,1320.55"/>
    </edge>
    <edge id=":10032209721_0" function="internal">
        <lane id=":10032209721_0_0" index="0" disallow="tram rail_urban rail rail_electric rail_fast ship" speed="8.55" length="5.10" shape="1599.50,1309.20 1598.09,1309.17 1597.19,1308.70 1596.35,1307.93 1595.12,1307.02"/>
    </edge>
    <edge id=":10032209721_1" function="internal">
        <lane id=":10032209721_1_0" index="0" disallow="tram rail_urban rail rail_electric rail_fast ship" speed="8.43" length="4.94" shape="1596.75,1304.26 1597.99,1305.05 1598.91,1305.57 1599.88,1305.80 1601.29,1305.73"/>
    </edge>
    <edge id=":10032216036_0" function="internal">
        <lane id=":10032216036_0_0" index="0" allow="pedestrian delivery bicycle" speed="5.48" length="4.65" shape="1629.11,1407.95 1628.34,1407.00 1627.42,1406.40 1626.35,1406.17 1625.12,1406.30"/>
    </edge>
    <edge id=":10032216036_1" function="internal">
        <lane id=":10032216036_1_0" index="0" allow="pedestrian delivery bicycle" speed="3.65" length="4.67" shape="1629.11,1407.95 1629.16,1406.51 1629.64,1405.76 1630.53,1405.68 1631.84,1406.29"/>
    </edge>
    <edge id=":10032216036_2" function="internal">
        <lane id=":10032216036_2_0" index="0" allow="pedestrian delivery bicycle" speed="5.56" length="8.71" shape="1624.37,1403.19 1626.66,1402.95 1628.67,1403.38 1630.39,1404.49 1631.84,1406.29"/>
    </edge>
    <edge id=":10032216036_3" function="internal">
        <lane id=":10032216036_3_0" index="0" allow="pedestrian delivery bicycle" speed="3.65" length="4.67" shape="1624.37,1403.19 1625.73,1403.69 1626.30,1404.37 1626.10,1405.24 1625.12,1406.30"/>
    </edge>
    <edge id=":10032216037_0" function="internal">
        <lane id=":10032216037_0_0" index="0" allow="pedestrian delivery bicycle" speed="3.65" length="4.67" shape="1615.97,1408.51 1614.61,1408.02 1614.03,1407.33 1614.24,1406.46 1615.22,1405.40"/>
    </edge>
    <edge id=":10160340149_0" function="internal">
        <lane id=":10160340149_0_0" index="0" allow="pedestrian bicycle" speed="4.64" length="4.54" width="2.00" shape="1289.60,2317.86 1288.77,2316.76 1287.88,2316.17 1286.91,2316.07 1285.86,2316.48"/>
    </edge>
    <edge id=":10160340149_1" function="internal">
        <lane id=":10160340149_1_0" index="0" allow="pedestrian bicycle" speed="6.33" length="8.75" width="2.00" shape="1289.60,2317.86 1288.44,2315.33 1288.15,2313.19 1288.73,2311.45 1290.18,2310.11"/>
    </edge>
    <edge id=":10160340149_2" function="internal">
        <lane id=":10160340149_2_0" index="0" allow="pedestrian bicycle" speed="2.89" length="2.92" width="2.00" shape="1289.60,2317.86 1289.65,2316.96 1289.96,2316.49 1290.51,2316.46 1291.32,2316.85"/>
    </edge>
    <edge id=":10160340149_3" function="internal">
        <lane id=":10160340149_3_0" index="0" allow="pedestrian bicycle" speed="4.89" length="4.57" width="2.00" shape="1291.84,2312.84 1291.02,2313.57 1290.66,2314.48 1290.76,2315.58 1291.32,2316.85"/>
    </edge>
    <edge id=":10160340149_4" function="internal">
        <lane id=":10160340149_4_0" index="0" disallow="tram rail_urban rail rail_electric rail_fast ship" speed="13.89" length="7.00" shape="1291.84,2312.84 1285.86,2316.48"/>
    </edge>
    <edge id=":10160340149_5" function="internal">
        <lane id=":10160340149_5_0" index="0" disallow="tram rail_urban rail rail_electric rail_fast ship" speed="13.89" length="7.00" shape="1284.20,2313.74 1290.18,2310.11"/>
    </edge>
    <edge id=":10160340149_6" function="internal">
        <lane id=":10160340149_6_0" index="0" allow="pedestrian bicycle" speed="6.40" length="2.37" width="2.00" shape="1284.20,2313.74 1286.12,2313.04 1286.45,2313.10"/>
    </edge>
    <edge id=":10160340149_7" function="internal">
        <lane id=":10160340149_7_0" index="0" allow="pedestrian bicycle" speed="6.40" length="6.45" width="2.00" shape="1286.45,2313.10 1287.94,2313.33 1289.68,2314.60 1291.32,2316.85"/>
    </edge>
    <edge id=":10160364899_0" function="internal">
        <lane id=":10160364899_0_0" index="0" allow="pedestrian delivery bicycle" speed="5.91" length="6.02" shape="1275.55,2271.26 1273.81,2270.48 1272.31,2270.22 1271.04,2270.47 1269.99,2271.24"/>
    </edge>
    <edge id=":10160364899_1" function="internal">
        <lane id=":10160364899_1_0" index="0" allow="pedestrian delivery bicycle" speed="6.72" length="11.34" shape="1275.55,2271.26 1273.00,2269.30 1271.90,2267.11 1272.24,2264.68 1274.04,2262.01"/>
    </edge>
    <edge id=":10160364899_2" function="internal">
        <lane id=":10160364899_2_0" index="0" allow="pedestrian delivery bicycle" speed="3.65" length="4.67" shape="1275.55,2271.26 1274.89,2269.98 1274.94,2269.08 1275.68,2268.58 1277.12,2268.48"/>
    </edge>
    <edge id=":10160364899_3" function="internal">
        <lane id=":10160364899_3_0" index="0" allow="pedestrian delivery bicycle" speed="4.84" length="5.29" shape="1276.41,2264.16 1275.58,2265.40 1275.41,2266.54 1275.93,2267.56 1277.12,2268.48"/>
    </edge>
    <edge id=":10160364899_4" function="internal">
        <lane id=":10160364899_4_0" index="0" disallow="tram rail_urban rail rail_electric rail_fast ship" speed="13.89" length="9.56" shape="1276.41,2264.16 1269.99,2271.24"/>
    </edge>
    <edge id=":10160364899_5" function="internal">
        <lane id=":10160364899_5_0" index="0" disallow="tram rail_urban rail rail_electric rail_fast ship" speed="13.89" length="9.56" shape="1267.62,2269.09 1274.04,2262.01"/>
    </edge>
    <edge id=":10160364899_6" function="internal">
        <lane id=":10160364899_6_0" index="0" allow="pedestrian delivery bicycle" speed="7.55" length="2.89" shape="1267.62,2269.09 1269.56,2267.57 1269.97,2267.46"/>
    </edge>
    <edge id=":10160364899_7" function="internal">
        <lane id=":10160364899_7_0" index="0" allow="pedestrian delivery bicycle" speed="7.55" length="7.48" shape="1269.97,2267.46 1271.79,2266.96 1274.30,2267.27 1277.12,2268.48"/>
    </edge>
    <edge id=":10160364901_0" function="internal">
        <lane id=":10160364901_0_0" index="0" allow="pedestrian delivery bicycle" speed="5.56" length="9.53" shape="1290.07,2276.08 1282.51,2281.89"/>
    </edge>
    <edge id=":10160364901_1" function="internal">
        <lane id=":10160364901_1_0" index="0" allow="pedestrian delivery bicycle" speed="5.56" length="10.33" shape="1290.07,2276.08 1287.87,2277.25 1285.57,2277.45 1283.18,2276.70 1280.69,2274.97"/>
    </edge>
    <edge id=":10160364901_2" function="internal">
        <lane id=":10160364901_2_0" index="0" allow="pedestrian delivery bicycle" speed="3.65" length="4.67" shape="1290.07,2276.08 1288.63,2276.18 1287.82,2275.78 1287.65,2274.91 1288.12,2273.54"/>
    </edge>
    <edge id=":10160364901_3" function="internal">
        <lane id=":10160364901_3_0" index="0" allow="pedestrian delivery bicycle" speed="5.56" length="5.91" shape="1282.78,2272.56 1284.28,2273.63 1285.67,2274.15 1286.95,2274.12 1288.12,2273.54"/>
    </edge>
    <edge id=":10160364901_4" function="internal">
        <lane id=":10160364901_4_0" index="0" allow="pedestrian delivery bicycle" speed="5.56" length="11.22" shape="1282.78,2272.56 1284.86,2274.95 1285.50,2277.30 1284.72,2279.62 1282.51,2281.89"/>
    </edge>
    <edge id=":10160364901_5" function="internal">
        <lane id=":10160364901_5_0" index="0" allow="pedestrian delivery bicycle" speed="3.65" length="4.67" shape="1282.78,2272.56 1283.17,2273.95 1282.95,2274.81 1282.12,2275.16 1280.69,2274.97"/>
    </edge>
    <edge id=":10160364901_6" function="internal">
        <lane id=":10160364901_6_0" index="0" allow="pedestrian delivery bicycle" speed="4.85" length="5.26" shape="1280.56,2279.35 1281.60,2278.28 1281.96,2277.20 1281.66,2276.10 1280.69,2274.97"/>
    </edge>
    <edge id=":10160364901_7" function="internal">
        <lane id=":10160364901_7_0" index="0" allow="pedestrian delivery bicycle" speed="5.56" length="9.53" shape="1280.56,2279.35 1288.12,2273.54"/>
    </edge>
    <edge id=":10160364901_8" function="internal">
        <lane id=":10160364901_8_0" index="0" allow="pedestrian delivery bicycle" speed="3.65" length="4.67" shape="1280.56,2279.35 1282.00,2279.25 1282.80,2279.64 1282.97,2280.52 1282.51,2281.89"/>
    </edge>
    <edge id=":10160364904_0" function="internal">
        <lane id=":10160364904_0_0" index="0" allow="pedestrian delivery bicycle" speed="3.65" length="4.67" shape="1239.75,2305.49 1238.34,2305.20 1237.67,2304.60 1237.75,2303.71 1238.56,2302.52"/>
    </edge>
    <edge id=":10160364907_0" function="internal">
        <lane id=":10160364907_0_0" index="0" allow="pedestrian delivery bicycle" speed="5.11" length="5.08" shape="1295.82,2275.68 1294.80,2274.71 1293.72,2274.28 1292.58,2274.40 1291.40,2275.06"/>
    </edge>
    <edge id=":10160364907_1" function="internal">
        <lane id=":10160364907_1_0" index="0" allow="pedestrian delivery bicycle" speed="5.56" length="9.76" shape="1295.82,2275.68 1294.75,2273.70 1294.57,2271.56 1295.27,2269.25 1296.86,2266.77"/>
    </edge>
    <edge id=":10160364907_2" function="internal">
        <lane id=":10160364907_2_0" index="0" allow="pedestrian delivery bicycle" speed="3.65" length="4.67" shape="1295.82,2275.68 1295.70,2274.24 1296.07,2273.43 1296.95,2273.24 1298.32,2273.68"/>
    </edge>
    <edge id=":10160364907_3" function="internal">
        <lane id=":10160364907_3_0" index="0" allow="pedestrian delivery bicycle" speed="5.02" length="5.02" shape="1298.84,2269.33 1297.88,2270.32 1297.47,2271.37 1297.62,2272.49 1298.32,2273.68"/>
    </edge>
    <edge id=":10160364907_4" function="internal">
        <lane id=":10160364907_4_0" index="0" allow="pedestrian delivery bicycle" speed="5.56" length="9.40" shape="1298.84,2269.33 1291.40,2275.06"/>
    </edge>
    <edge id=":10160364907_5" function="internal">
        <lane id=":10160364907_5_0" index="0" allow="pedestrian delivery bicycle" speed="3.78" length="4.73" shape="1298.84,2269.33 1297.39,2269.43 1296.57,2269.04 1296.40,2268.15 1296.86,2266.77"/>
    </edge>
    <edge id=":10160364907_6" function="internal">
        <lane id=":10160364907_6_0" index="0" allow="pedestrian delivery bicycle" speed="5.56" length="9.45" shape="1289.45,2272.52 1291.76,2270.93 1293.45,2269.95 1295.00,2268.82 1296.86,2266.77"/>
    </edge>
    <edge id=":10160364907_7" function="internal">
        <lane id=":10160364907_7_0" index="0" allow="pedestrian delivery bicycle" speed="5.56" length="10.16" shape="1289.45,2272.52 1291.85,2271.18 1294.13,2270.92 1296.28,2271.76 1298.32,2273.68"/>
    </edge>
    <edge id=":10160364907_8" function="internal">
        <lane id=":10160364907_8_0" index="0" allow="pedestrian delivery bicycle" speed="3.65" length="4.67" shape="1289.45,2272.52 1290.89,2272.42 1291.69,2272.82 1291.86,2273.69 1291.40,2275.06"/>
    </edge>
    <edge id=":10160364908_0" function="internal">
        <lane id=":10160364908_0_0" index="0" allow="pedestrian delivery bicycle" speed="3.65" length="4.67" shape="1300.66,2262.00 1302.03,2261.56 1302.91,2261.74 1303.28,2262.55 1303.16,2263.99"/>
    </edge>
    <edge id=":10160364912_0" function="internal">
        <lane id=":10160364912_0_0" index="0" allow="pedestrian delivery bicycle" speed="3.65" length="4.67" shape="1310.81,2278.52 1312.25,2278.47 1313.04,2278.89 1313.18,2279.77 1312.67,2281.12"/>
    </edge>
    <edge id=":10160403750_0" function="internal">
        <lane id=":10160403750_0_0" index="0" allow="pedestrian bicycle" speed="5.56" length="6.88" width="2.00" shape="1292.97,2335.42 1287.35,2331.45"/>
    </edge>
    <edge id=":10160403750_1" function="internal">
        <lane id=":10160403750_1_0" index="0" allow="pedestrian bicycle" speed="5.56" length="7.21" width="2.00" shape="1292.97,2335.42 1291.58,2334.05 1290.95,2332.55 1291.07,2330.91 1291.94,2329.13"/>
    </edge>
    <edge id=":10160403750_2" function="internal">
        <lane id=":10160403750_2_0" index="0" allow="pedestrian bicycle" speed="2.89" length="2.92" width="2.00" shape="1292.97,2335.42 1292.66,2334.57 1292.76,2334.02 1293.25,2333.77 1294.15,2333.81"/>
    </edge>
    <edge id=":10160403750_3" function="internal">
        <lane id=":10160403750_3_0" index="0" allow="pedestrian bicycle" speed="4.52" length="4.08" width="2.00" shape="1293.60,2330.25 1293.10,2331.26 1293.03,2332.19 1293.38,2333.04 1294.15,2333.81"/>
    </edge>
    <edge id=":10160403750_4" function="internal">
        <lane id=":10160403750_4_0" index="0" allow="pedestrian bicycle" speed="5.56" length="7.26" width="2.00" shape="1293.60,2330.25 1292.26,2331.72 1290.77,2332.41 1289.14,2332.32 1287.35,2331.45"/>
    </edge>
    <edge id=":10160403750_5" function="internal">
        <lane id=":10160403750_5_0" index="0" allow="pedestrian bicycle" speed="2.89" length="2.92" width="2.00" shape="1293.60,2330.25 1292.77,2330.59 1292.21,2330.51 1291.94,2330.03 1291.94,2329.13"/>
    </edge>
    <edge id=":10160403750_6" function="internal">
        <lane id=":10160403750_6_0" index="0" allow="pedestrian bicycle" speed="4.44" length="4.03" width="2.00" shape="1288.47,2329.79 1289.46,2330.28 1290.37,2330.33 1291.20,2329.94 1291.94,2329.13"/>
    </edge>
    <edge id=":10160403750_7" function="internal">
        <lane id=":10160403750_7_0" index="0" allow="pedestrian bicycle" speed="5.56" length="6.96" width="2.00" shape="1288.47,2329.79 1294.15,2333.81"/>
    </edge>
    <edge id=":10160403750_8" function="internal">
        <lane id=":10160403750_8_0" index="0" allow="pedestrian bicycle" speed="2.89" length="2.92" width="2.00" shape="1288.47,2329.79 1288.81,2330.63 1288.74,2331.18 1288.25,2331.45 1287.35,2331.45"/>
    </edge>
    <edge id=":10160403751_0" function="internal">
        <lane id=":10160403751_0_0" index="0" allow="pedestrian bicycle" speed="2.89" length="2.92" width="2.00" shape="1294.74,2334.25 1295.05,2335.09 1294.95,2335.64 1294.45,2335.90 1293.55,2335.85"/>
    </edge>
    <edge id=":10160403753_0" function="internal">
        <lane id=":10160403753_0_0" index="0" allow="pedestrian bicycle" speed="2.89" length="2.92" width="2.00" shape="1251.48,2344.63 1250.59,2344.49 1250.15,2344.14 1250.17,2343.58 1250.64,2342.81"/>
    </edge>
    <edge id=":10198295551_0" function="internal">
        <lane id=":10198295551_0_0" index="0" allow="pedestrian bicycle" speed="2.89" length="2.92" width="2.00" shape="1134.28,1464.67 1135.13,1464.38 1135.68,1464.49 1135.92,1464.99 1135.86,1465.89"/>
    </edge>
    <edge id=":10235918133_0" function="internal">
        <lane id=":10235918133_0_0" index="0" allow="bicycle" speed="5.56" length="0.74" width="2.00" shape="810.55,1647.07 811.27,1646.92"/>
    </edge>
    <edge id=":10235918133_1" function="internal">
        <lane id=":10235918133_1_0" index="0" allow="pedestrian bicycle" speed="2.89" length="1.46" width="2.00" shape="810.55,1647.07 809.70,1646.75 809.34,1646.32"/>
    </edge>
    <edge id=":10235918133_3" function="internal">
        <lane id=":10235918133_3_0" index="0" allow="pedestrian bicycle" speed="2.89" length="1.46" width="2.00" shape="809.34,1646.32 809.47,1645.78 810.09,1645.12"/>
    </edge>
    <edge id=":10235918133_2" function="internal">
        <lane id=":10235918133_2_0" index="0" allow="bicycle" speed="5.56" length="0.28" width="2.00" shape="810.37,1645.14 810.09,1645.12"/>
    </edge>
    <edge id=":10242989398_0" function="internal">
        <lane id=":10242989398_0_0" index="0" disallow="tram rail_urban rail rail_electric rail_fast ship" speed="3.65" length="4.67" shape="712.81,1001.01 711.52,1001.65 710.63,1001.61 710.13,1000.86 710.03,999.42"/>
    </edge>
    <edge id=":10242989400_0" function="internal">
        <lane id=":10242989400_0_0" index="0" disallow="tram rail_urban rail rail_electric rail_fast ship" speed="13.89" length="14.47" shape="757.45,984.32 749.14,996.17"/>
    </edge>
    <edge id=":10242989400_1" function="internal">
        <lane id=":10242989400_1_0" index="0" disallow="tram rail_urban rail rail_electric rail_fast ship" speed="8.31" length="3.81" shape="757.45,984.32 754.91,986.94 754.76,987.01"/>
    </edge>
    <edge id=":10242989400_2" function="internal">
        <lane id=":10242989400_2_0" index="0" disallow="tram rail_urban rail rail_electric rail_fast ship" speed="3.65" length="1.44" shape="757.45,984.32 756.09,984.81"/>
    </edge>
    <edge id=":10242989400_9" function="internal">
        <lane id=":10242989400_9_0" index="0" disallow="tram rail_urban rail rail_electric rail_fast ship" speed="8.31" length="9.62" shape="754.76,987.01 752.10,988.29 749.00,988.39 745.63,987.23"/>
    </edge>
    <edge id=":10242989400_10" function="internal">
        <lane id=":10242989400_10_0" index="0" disallow="tram rail_urban rail rail_electric rail_fast ship" speed="3.65" length="3.23" shape="756.09,984.81 755.21,984.66 754.81,983.86 754.88,982.42"/>
    </edge>
    <edge id=":10242989400_3" function="internal">
        <lane id=":10242989400_3_0" index="0" disallow="tram rail_urban rail rail_electric rail_fast ship" speed="6.86" length="8.87" shape="747.08,984.38 749.30,985.13 751.34,985.06 753.20,984.16 754.88,982.42"/>
    </edge>
    <edge id=":10242989400_4" function="internal">
        <lane id=":10242989400_4_0" index="0" disallow="tram rail_urban rail rail_electric rail_fast ship" speed="7.69" length="13.90" shape="747.08,984.38 749.89,986.48 751.17,989.14 750.92,992.37 749.14,996.17"/>
    </edge>
    <edge id=":10242989400_5" function="internal">
        <lane id=":10242989400_5_0" index="0" disallow="tram rail_urban rail rail_electric rail_fast ship" speed="3.65" length="4.67" shape="747.08,984.38 747.79,985.63 747.78,986.53 747.06,987.06 745.63,987.23"/>
    </edge>
    <edge id=":10242989400_6" function="internal">
        <lane id=":10242989400_6_0" index="0" disallow="tram rail_urban rail rail_electric rail_fast ship" speed="6.07" length="8.21" shape="746.56,994.27 747.66,991.96 747.88,990.01 747.20,988.44 745.63,987.23"/>
    </edge>
    <edge id=":10242989400_7" function="internal">
        <lane id=":10242989400_7_0" index="0" disallow="tram rail_urban rail rail_electric rail_fast ship" speed="13.89" length="14.47" shape="746.56,994.27 754.88,982.42"/>
    </edge>
    <edge id=":10242989400_8" function="internal">
        <lane id=":10242989400_8_0" index="0" disallow="tram rail_urban rail rail_electric rail_fast ship" speed="3.65" length="1.45" shape="746.56,994.27 747.92,993.77"/>
    </edge>
    <edge id=":10242989400_11" function="internal">
        <lane id=":10242989400_11_0" index="0" disallow="tram rail_urban rail rail_electric rail_fast ship" speed="3.65" length="3.24" shape="747.92,993.77 748.81,993.93 749.21,994.73 749.14,996.17"/>
    </edge>
    <edge id=":10243032242_0" function="internal">
        <lane id=":10243032242_0_0" index="0" allow="pedestrian bicycle" speed="4.78" length="3.98" width="2.00" shape="745.45,987.14 744.90,987.10 744.23,987.48 743.44,988.29 742.53,989.52"/>
    </edge>
    <edge id=":10243032242_1" function="internal">
        <lane id=":10243032242_1_0" index="0" disallow="tram rail_urban rail rail_electric rail_fast ship" speed="13.89" length="5.81" shape="745.45,987.14 740.27,984.50"/>
    </edge>
    <edge id=":10243032242_2" function="internal">
        <lane id=":10243032242_2_0" index="0" disallow="tram rail_urban rail rail_electric rail_fast ship" speed="13.89" length="5.81" shape="741.72,981.65 746.90,984.28"/>
    </edge>
    <edge id=":10243032242_3" function="internal">
        <lane id=":10243032242_3_0" index="0" allow="pedestrian bicycle" speed="6.32" length="2.51" width="2.00" shape="741.72,981.65 743.48,983.01 743.59,983.27"/>
    </edge>
    <edge id=":10243032242_7" function="internal">
        <lane id=":10243032242_7_0" index="0" allow="pedestrian bicycle" speed="6.32" length="6.73" width="2.00" shape="743.59,983.27 744.20,984.77 743.88,986.95 742.53,989.52"/>
    </edge>
    <edge id=":10243032242_4" function="internal">
        <lane id=":10243032242_4_0" index="0" allow="pedestrian bicycle" speed="4.53" length="4.63" width="2.00" shape="740.87,988.41 741.51,987.16 741.62,986.09 741.21,985.20 740.27,984.50"/>
    </edge>
    <edge id=":10243032242_5" function="internal">
        <lane id=":10243032242_5_0" index="0" allow="pedestrian bicycle" speed="6.25" length="7.86" width="2.00" shape="740.87,988.41 742.60,986.14 744.18,984.70 745.61,984.08 746.90,984.28"/>
    </edge>
    <edge id=":10243032242_6" function="internal">
        <lane id=":10243032242_6_0" index="0" allow="pedestrian bicycle" speed="2.89" length="2.92" width="2.00" shape="740.87,988.41 741.71,988.07 742.26,988.14 742.53,988.62 742.53,989.52"/>
    </edge>
    <edge id=":10243032249_0" function="internal">
        <lane id=":10243032249_0_0" index="0" allow="pedestrian bicycle" speed="4.51" length="4.13" width="2.00" shape="716.61,1000.71 715.34,1000.15 714.29,999.99 713.48,1000.21 712.91,1000.83"/>
    </edge>
    <edge id=":10243032249_1" function="internal">
        <lane id=":10243032249_1_0" index="0" allow="pedestrian bicycle" speed="6.27" length="8.83" width="2.00" shape="716.61,1000.71 714.30,999.14 712.98,997.44 712.64,995.62 713.29,993.68"/>
    </edge>
    <edge id=":10243032249_2" function="internal">
        <lane id=":10243032249_2_0" index="0" allow="pedestrian bicycle" speed="2.89" length="2.92" width="2.00" shape="716.61,1000.71 716.19,999.91 716.21,999.36 716.66,999.04 717.56,998.95"/>
    </edge>
    <edge id=":10243032249_3" function="internal">
        <lane id=":10243032249_3_0" index="0" allow="pedestrian bicycle" speed="4.82" length="4.54" width="2.00" shape="716.07,995.26 715.69,996.32 715.82,997.29 716.44,998.16 717.56,998.95"/>
    </edge>
    <edge id=":10243032249_4" function="internal">
        <lane id=":10243032249_4_0" index="0" disallow="tram rail_urban rail rail_electric rail_fast ship" speed="13.89" length="6.40" shape="716.07,995.26 712.91,1000.83"/>
    </edge>
    <edge id=":10243032249_5" function="internal">
        <lane id=":10243032249_5_0" index="0" disallow="tram rail_urban rail rail_electric rail_fast ship" speed="13.89" length="6.40" shape="710.12,999.25 713.29,993.68"/>
    </edge>
    <edge id=":10243032249_6" function="internal">
        <lane id=":10243032249_6_0" index="0" allow="pedestrian bicycle" speed="6.31" length="2.02" width="2.00" shape="710.12,999.25 711.29,997.99 711.59,997.91"/>
    </edge>
    <edge id=":10243032249_7" function="internal">
        <lane id=":10243032249_7_0" index="0" allow="pedestrian bicycle" speed="6.31" length="6.29" width="2.00" shape="711.59,997.91 712.92,997.52 715.01,997.84 717.56,998.95"/>
    </edge>
    <edge id=":10688071053_0" function="internal">
        <lane id=":10688071053_0_0" index="0" allow="pedestrian delivery bicycle" speed="3.65" length="4.67" shape="1812.05,1645.23 1813.27,1646.01 1813.68,1646.81 1813.29,1647.61 1812.11,1648.43"/>
    </edge>
    <edge id=":10767149457_0" function="internal">
        <lane id=":10767149457_0_0" index="0" allow="pedestrian delivery bicycle" speed="3.65" length="4.67" shape="772.14,676.27 771.10,675.27 770.85,674.42 771.38,673.70 772.71,673.12"/>
    </edge>
    <edge id=":10767149458_0" function="internal">
        <lane id=":10767149458_0_0" index="0" allow="pedestrian delivery bicycle" speed="3.65" length="4.67" shape="788.21,741.22 789.39,742.06 789.77,742.87 789.35,743.65 788.13,744.42"/>
    </edge>
    <edge id=":10767149459_0" function="internal">
        <lane id=":10767149459_0_0" index="0" disallow="tram rail_urban rail rail_electric rail_fast ship" speed="3.65" length="4.67" shape="777.41,756.31 776.57,757.49 775.75,757.86 774.97,757.43 774.21,756.21"/>
    </edge>
    <edge id=":11051491398_0" function="internal">
        <lane id=":11051491398_0_0" index="0" disallow="tram rail_urban rail rail_electric rail_fast ship" speed="3.65" length="4.67" shape="1540.84,961.12 1539.60,960.39 1539.15,959.62 1539.51,958.80 1540.66,957.93"/>
    </edge>
    <edge id=":11051491399_0" function="internal">