<?xml version="1.0" encoding="UTF-8"?>

<!-- generated on 2023-10-23 17:31:20 by Eclipse SUMO netedit Version 1.18.0
<configuration xmlns:xsi="http://www.w3.org/2001/XMLSchema-instance" xsi:noNamespaceSchemaLocation="http://sumo.dlr.de/xsd/neteditConfiguration.xsd">

    <input>
        <sumo-net-file value="/Users/cianmurphy/code_directories/final_year_project/Tutorials/drivinig_in_circles/circles.net.xml"/>
    </input>

    <output>
        <output-file value="/Users/cianmurphy/code_directories/final_year_project/Tutorials/drivinig_in_circles/circles.net.xml"/>
    </output>

    <processing>
        <geometry.min-radius.fix.railways value="false"/>
        <geometry.max-grade.fix value="false"/>
        <offset.disable-normalization value="true"/>
        <lefthand value="0"/>
    </processing>

    <junctions>
        <no-turnarounds value="true"/>
        <junctions.corner-detail value="5"/>
        <junctions.limit-turn-speed value="5.50"/>
        <rectangular-lane-cut value="0"/>
    </junctions>

    <pedestrian>
        <walkingareas value="0"/>
    </pedestrian>

</configuration>
-->

<net version="1.16" junctionCornerDetail="5" limitTurnSpeed="5.50" xmlns:xsi="http://www.w3.org/2001/XMLSchema-instance" xsi:noNamespaceSchemaLocation="http://sumo.dlr.de/xsd/net_file.xsd">

    <location netOffset="0.00,0.00" convBoundary="-48.47,-70.33,158.65,124.85" origBoundary="-10000000000.00,-10000000000.00,10000000000.00,10000000000.00" projParameter="!"/>

    <edge id=":J10_0" function="internal">
        <lane id=":J10_0_0" index="0" speed="13.89" length="0.94" shape="92.17,-62.71 91.94,-62.87 91.77,-62.96 91.58,-63.00 91.30,-63.03"/>
    </edge>
    <edge id=":J11_0" function="internal">
        <lane id=":J11_0_0" index="0" speed="4.09" length="1.47" shape="0.78,-68.63 0.40,-68.62 0.06,-68.52 -0.25,-68.34 -0.53,-68.08"/>
    </edge>
    <edge id=":J12_0" function="internal">
        <lane id=":J12_0_0" index="0" speed="4.19" length="1.27" shape="-46.38,-15.12 -46.57,-14.85 -46.70,-14.57 -46.76,-14.27 -46.77,-13.94"/>
    </edge>
    <edge id=":J5_0" function="internal">
        <lane id=":J5_0_0" index="0" speed="3.95" length="2.02" shape="-38.00,96.48 -37.89,97.00 -37.65,97.41 -37.28,97.72 -36.78,97.91"/>
    </edge>
    <edge id=":J6_0" function="internal">
        <lane id=":J6_0_0" index="0" speed="4.32" length="1.14" shape="65.25,123.02 65.58,123.09 65.81,123.10 66.04,123.04 66.34,122.90"/>
    </edge>
    <edge id=":J7_0" function="internal">
        <lane id=":J7_0_0" index="0" speed="4.30" length="1.16" shape="130.11,91.42 130.41,91.26 130.60,91.11 130.74,90.91 130.88,90.60"/>
    </edge>
    <edge id=":J8_0" function="internal">
        <lane id=":J8_0_0" index="0" speed="4.27" length="1.21" shape="156.70,29.44 156.82,29.11 156.87,28.86 156.84,28.61 156.73,28.28"/>
    </edge>
    <edge id=":J9_0" function="internal">
        <lane id=":J9_0_0" index="0" speed="13.89" length="0.94" shape="136.06,-29.36 135.96,-29.61 135.87,-29.78 135.73,-29.92 135.52,-30.09"/>
    </edge>

    <edge id="E10" from="J10" to="J11" priority="-1">
        <lane id="E10_0" index="0" speed="13.89" length="90.70" shape="91.30,-63.03 0.78,-68.63"/>
    </edge>
    <edge id="E11" from="J11" to="J12" priority="-1">
        <lane id="E11_0" index="0" speed="13.89" length="70.06" shape="-0.53,-68.08 -46.38,-15.12"/>
    </edge>
    <edge id="E5" from="J5" to="J6" priority="-1">
        <lane id="E5_0" index="0" speed="13.89" length="105.08" shape="-36.78,97.91 65.25,123.02"/>
    </edge>
    <edge id="E6" from="J6" to="J7" priority="-1">
        <lane id="E6_0" index="0" speed="13.89" length="71.12" shape="66.34,122.90 130.11,91.42"/>
    </edge>
    <edge id="E8" from="J8" to="J9" priority="-1">
        <lane id="E8_0" index="0" speed="13.89" length="61.22" shape="156.73,28.28 136.06,-29.36"/>
    </edge>
    <edge id="E9" from="J9" to="J10" priority="-1">
        <lane id="E9_0" index="0" speed="13.89" length="54.25" shape="135.52,-30.09 92.17,-62.71"/>
    </edge>
    <edge id="edge1" from="J12" to="J5" priority="-1">
        <lane id="edge1_0" index="0" speed="13.89" length="110.77" shape="-46.77,-13.94 -38.00,96.48"/>
    </edge>
    <edge id="edge2" from="J7" to="J8" priority="-1">
        <lane id="edge2_0" index="0" speed="13.89" length="66.39" shape="130.88,90.60 156.70,29.44"/>
    </edge>

    <junction id="J10" type="priority" x="92.36" y="-64.56" incLanes="E9_0" intLanes=":J10_0_0" shape="91.20,-61.43 93.13,-63.99 92.56,-64.38 92.33,-64.49 92.09,-64.55 91.80,-64.59 91.40,-64.62">
        <request index="0" response="0" foes="0" cont="0"/>
    </junction>
    <junction id="J11" type="priority" x="-0.70" y="-70.33" incLanes="E10_0" intLanes=":J11_0_0" shape="0.68,-67.04 0.88,-70.23 -0.11,-70.15 -0.57,-70.00 -0.99,-69.78 -1.38,-69.49 -1.74,-69.13">
        <request index="0" response="0" foes="0" cont="0"/>
    </junction>
    <junction id="J12" type="priority" x="-48.47" y="-15.15" incLanes="E11_0" intLanes=":J12_0_0" shape="-48.36,-13.81 -45.17,-14.07 -47.59,-16.16 -48.07,-15.45 -48.22,-15.07 -48.32,-14.67 -48.37,-14.25">
        <request index="0" response="0" foes="0" cont="0"/>
    </junction>
    <junction id="J5" type="priority" x="-39.41" y="98.91" incLanes="edge1_0" intLanes=":J5_0_0" shape="-37.17,99.46 -36.40,96.36 -39.59,96.61 -39.24,97.95 -38.89,98.47 -38.43,98.90 -37.86,99.23">
        <request index="0" response="0" foes="0" cont="0"/>
    </junction>
    <junction id="J6" type="priority" x="66.01" y="124.85" incLanes="E5_0" intLanes=":J6_0_0" shape="67.05,124.34 65.64,121.47 64.87,124.57 65.69,124.74 65.99,124.74 66.29,124.67 66.62,124.54">
        <request index="0" response="0" foes="0" cont="0"/>
    </junction>
    <junction id="J7" type="priority" x="131.89" y="92.32" incLanes="E6_0" intLanes=":J7_0_0" shape="132.35,91.23 129.40,89.98 130.82,92.85 131.57,92.44 131.80,92.24 131.99,91.99 132.16,91.67">
        <request index="0" response="0" foes="0" cont="0"/>
    </junction>
    <junction id="J8" type="priority" x="158.65" y="28.91" incLanes="edge2_0" intLanes=":J8_0_0" shape="158.23,27.74 155.22,28.82 158.17,30.06 158.47,29.22 158.52,28.91 158.49,28.59 158.40,28.21">
        <request index="0" response="0" foes="0" cont="0"/>
    </junction>
    <junction id="J9" type="priority" x="137.24" y="-30.80" incLanes="E8_0" intLanes=":J9_0_0" shape="134.55,-28.82 137.57,-29.90 137.31,-30.54 137.18,-30.75 137.02,-30.94 136.79,-31.13 136.48,-31.37">
        <request index="0" response="0" foes="0" cont="0"/>
    </junction>

    <connection from="E10" to="E11" fromLane="0" toLane="0" via=":J11_0_0" dir="r" state="M"/>
    <connection from="E11" to="edge1" fromLane="0" toLane="0" via=":J12_0_0" dir="r" state="M"/>
    <connection from="E5" to="E6" fromLane="0" toLane="0" via=":J6_0_0" dir="s" state="M"/>
    <connection from="E6" to="edge2" fromLane="0" toLane="0" via=":J7_0_0" dir="s" state="M"/>
    <connection from="E8" to="E9" fromLane="0" toLane="0" via=":J9_0_0" dir="s" state="M"/>
    <connection from="E9" to="E10" fromLane="0" toLane="0" via=":J10_0_0" dir="s" state="M"/>
    <connection from="edge1" to="E5" fromLane="0" toLane="0" via=":J5_0_0" dir="r" state="M"/>
    <connection from="edge2" to="E8" fromLane="0" toLane="0" via=":J8_0_0" dir="s" state="M"/>

    <connection from=":J10_0" to="E10" fromLane="0" toLane="0" dir="s" state="M"/>
    <connection from=":J11_0" to="E11" fromLane="0" toLane="0" dir="r" state="M"/>
    <connection from=":J12_0" to="edge1" fromLane="0" toLane="0" dir="r" state="M"/>
    <connection from=":J5_0" to="E5" fromLane="0" toLane="0" dir="r" state="M"/>
    <connection from=":J6_0" to="E6" fromLane="0" toLane="0" dir="s" state="M"/>
    <connection from=":J7_0" to="edge2" fromLane="0" toLane="0" dir="s" state="M"/>
    <connection from=":J8_0" to="E8" fromLane="0" toLane="0" dir="s" state="M"/>
    <connection from=":J9_0" to="E9" fromLane="0" toLane="0" dir="s" state="M"/>

</net>
