<?xml version="1.0" encoding="UTF-8"?>

<!-- generated on 2023-10-23 18:04:18 by Eclipse SUMO netedit Version 1.18.0
-->

<routes xmlns:xsi="http://www.w3.org/2001/XMLSchema-instance" xsi:noNamespaceSchemaLocation="http://sumo.dlr.de/xsd/routes_file.xsd">
    <!-- Routes -->
    <route id="r_0" edges="E0 E1 E2 E3" color="236,238,48,0"/>
</routes>
