<?xml version="1.0" encoding="UTF-8"?>

<!-- generated on 2024-02-06 11:15:05 by Eclipse SUMO netedit Version 1.18.0
<configuration xmlns:xsi="http://www.w3.org/2001/XMLSchema-instance" xsi:noNamespaceSchemaLocation="http://sumo.dlr.de/xsd/neteditConfiguration.xsd">

    <input>
        <sumocfg-file value="/Users/cianmurphy/code_directories/final_year_project/net_gen/randnet_1.sumocfg"/>
        <sumo-net-file value="/Users/cianmurphy/code_directories/final_year_project/net_gen/randnet_1.net.xml"/>
    </input>

    <output>
        <output-file value="/Users/cianmurphy/code_directories/final_year_project/net_gen/randnet_1.net.xml"/>
    </output>

    <processing>
        <geometry.min-radius.fix.railways value="false"/>
        <geometry.max-grade.fix value="false"/>
        <offset.disable-normalization value="true"/>
        <lefthand value="0"/>
    </processing>

    <junctions>
        <no-turnarounds value="true"/>
        <junctions.corner-detail value="5"/>
        <junctions.limit-turn-speed value="5.50"/>
        <rectangular-lane-cut value="0"/>
    </junctions>

    <pedestrian>
        <walkingareas value="0"/>
    </pedestrian>

</configuration>
-->

<net version="1.16" junctionCornerDetail="5" limitTurnSpeed="5.50" xmlns:xsi="http://www.w3.org/2001/XMLSchema-instance" xsi:noNamespaceSchemaLocation="http://sumo.dlr.de/xsd/net_file.xsd">

    <location netOffset="1423.98,3742.23" convBoundary="0.00,0.00,4952.11,5551.73" origBoundary="-1423.98,-3742.23,3528.13,1809.50" projParameter="!"/>

    <edge id=":1_0" function="internal">
        <lane id=":1_0_0" index="0" speed="5.98" length="9.08" shape="1422.51,3750.53 1422.10,3747.96 1420.97,3746.38 1419.12,3745.80 1416.55,3746.21"/>
    </edge>
    <edge id=":1_1" function="internal">
        <lane id=":1_1_0" index="0" speed="13.89" length="14.86" shape="1422.51,3750.53 1422.37,3746.80 1422.06,3743.11 1421.54,3739.45 1420.79,3735.80"/>
    </edge>
    <edge id=":1_2" function="internal">
        <lane id=":1_2_0" index="0" speed="8.09" length="4.36" shape="1422.51,3750.53 1423.01,3746.19"/>
    </edge>
    <edge id=":1_3" function="internal">
        <lane id=":1_3_0" index="0" speed="3.65" length="1.44" shape="1422.51,3750.53 1423.29,3749.31"/>
    </edge>
    <edge id=":1_16" function="internal">
        <lane id=":1_16_0" index="0" speed="8.09" length="10.76" shape="1423.01,3746.19 1424.66,3743.14 1427.46,3741.38 1431.41,3740.91"/>
    </edge>
    <edge id=":1_17" function="internal">
        <lane id=":1_17_0" index="0" speed="3.65" length="3.23" shape="1423.29,3749.31 1424.08,3748.90 1424.89,3749.29 1425.71,3750.48"/>
    </edge>
    <edge id=":1_4" function="internal">
        <lane id=":1_4_0" index="0" speed="6.62" length="9.76" shape="1431.29,3744.11 1428.81,3744.43 1427.05,3745.59 1426.02,3747.61 1425.71,3750.48"/>
    </edge>
    <edge id=":1_5" function="internal">
        <lane id=":1_5_0" index="0" speed="13.89" length="14.95" shape="1431.29,3744.11 1427.55,3744.15 1423.84,3744.53 1420.17,3745.23 1416.55,3746.21"/>
    </edge>
    <edge id=":1_6" function="internal">
        <lane id=":1_6_0" index="0" speed="9.03" length="14.51" shape="1431.29,3744.11 1427.42,3743.47 1424.37,3741.87 1422.17,3739.31 1420.79,3735.80"/>
    </edge>
    <edge id=":1_7" function="internal">
        <lane id=":1_7_0" index="0" speed="3.65" length="4.67" shape="1431.29,3744.11 1430.12,3743.26 1429.75,3742.45 1430.18,3741.66 1431.41,3740.91"/>
    </edge>
    <edge id=":1_8" function="internal">
        <lane id=":1_8_0" index="0" speed="7.70" length="10.32" shape="1423.90,3735.05 1424.88,3737.53 1426.45,3739.33 1428.63,3740.46 1431.41,3740.91"/>
    </edge>
    <edge id=":1_9" function="internal">
        <lane id=":1_9_0" index="0" speed="13.89" length="15.56" shape="1423.90,3735.05 1424.67,3738.81 1425.21,3742.71 1425.56,3746.64 1425.71,3750.48"/>
    </edge>
    <edge id=":1_10" function="internal">
        <lane id=":1_10_0" index="0" speed="8.41" length="4.08" shape="1423.90,3735.05 1424.19,3738.85 1424.09,3739.11"/>
    </edge>
    <edge id=":1_11" function="internal">
        <lane id=":1_11_0" index="0" speed="3.65" length="1.44" shape="1423.90,3735.05 1423.40,3736.41"/>
    </edge>
    <edge id=":1_18" function="internal">
        <lane id=":1_18_0" index="0" speed="8.41" length="10.92" shape="1424.09,3739.11 1423.06,3741.97 1420.51,3744.43 1416.55,3746.21"/>
    </edge>
    <edge id=":1_19" function="internal">
        <lane id=":1_19_0" index="0" speed="3.65" length="3.23" shape="1423.40,3736.41 1422.72,3736.98 1421.85,3736.78 1420.79,3735.80"/>
    </edge>
    <edge id=":1_12" function="internal">
        <lane id=":1_12_0" index="0" speed="7.00" length="10.09" shape="1415.60,3743.15 1418.35,3741.94 1420.14,3740.31 1420.95,3738.26 1420.79,3735.80"/>
    </edge>
    <edge id=":1_13" function="internal">
        <lane id=":1_13_0" index="0" speed="13.89" length="16.03" shape="1415.60,3743.15 1419.39,3742.15 1423.43,3741.41 1427.51,3740.97 1431.41,3740.91"/>
    </edge>
    <edge id=":1_14" function="internal">
        <lane id=":1_14_0" index="0" speed="7.59" length="15.41" shape="1415.60,3743.15 1419.96,3742.45 1423.10,3743.44 1425.02,3746.12 1425.71,3750.48"/>
    </edge>
    <edge id=":1_15" function="internal">
        <lane id=":1_15_0" index="0" speed="3.65" length="4.67" shape="1415.60,3743.15 1416.99,3743.56 1417.61,3744.21 1417.46,3745.09 1416.55,3746.21"/>
    </edge>
    <edge id=":10_0" function="internal">
        <lane id=":10_0_0" index="0" speed="8.69" length="13.76" shape="1149.89,3834.08 1148.86,3831.64 1146.65,3829.77 1143.28,3828.48 1138.73,3827.77"/>
    </edge>
    <edge id=":10_1" function="internal">
        <lane id=":10_1_0" index="0" speed="13.89" length="17.07" shape="1149.89,3834.08 1148.73,3830.22 1146.74,3826.24 1144.30,3822.47 1141.81,3819.21"/>
    </edge>
    <edge id=":10_2" function="internal">
        <lane id=":10_2_0" index="0" speed="8.29" length="13.67" shape="1149.89,3834.08 1149.80,3830.40 1150.86,3827.43 1153.05,3825.16 1156.38,3823.59"/>
    </edge>
    <edge id=":10_3" function="internal">
        <lane id=":10_3_0" index="0" speed="3.65" length="4.67" shape="1149.89,3834.08 1150.49,3832.77 1151.21,3832.24 1152.06,3832.51 1153.05,3833.57"/>
    </edge>
    <edge id=":10_4" function="internal">
        <lane id=":10_4_0" index="0" speed="6.84" length="9.02" shape="1157.33,3826.65 1155.13,3827.68 1153.69,3829.18 1152.99,3831.14 1153.05,3833.57"/>
    </edge>
    <edge id=":10_5" function="internal">
        <lane id=":10_5_0" index="0" speed="13.89" length="18.71" shape="1157.33,3826.65 1153.11,3827.51 1148.11,3827.92 1143.06,3827.98 1138.73,3827.77"/>
    </edge>
    <edge id=":10_6" function="internal">
        <lane id=":10_6_0" index="0" speed="10.64" length="4.35" shape="1157.33,3826.65 1153.55,3827.06 1153.02,3826.91"/>
    </edge>
    <edge id=":10_7" function="internal">
        <lane id=":10_7_0" index="0" speed="3.65" length="1.44" shape="1157.33,3826.65 1155.95,3826.24"/>
    </edge>
    <edge id=":10_16" function="internal">
        <lane id=":10_16_0" index="0" speed="10.64" length="13.89" shape="1153.02,3826.91 1149.70,3825.95 1145.79,3823.34 1141.81,3819.21"/>
    </edge>
    <edge id=":10_17" function="internal">
        <lane id=":10_17_0" index="0" speed="3.65" length="3.23" shape="1155.95,3826.24 1155.33,3825.59 1155.47,3824.71 1156.38,3823.59"/>
    </edge>
    <edge id=":10_8" function="internal">
        <lane id=":10_8_0" index="0" speed="9.52" length="14.46" shape="1144.28,3817.18 1147.53,3820.62 1150.63,3822.83 1153.58,3823.83 1156.38,3823.59"/>
    </edge>
    <edge id=":10_9" function="internal">
        <lane id=":10_9_0" index="0" speed="13.89" length="18.72" shape="1144.28,3817.18 1146.88,3820.68 1149.55,3824.97 1151.79,3829.47 1153.05,3833.57"/>
    </edge>
    <edge id=":10_10" function="internal">
        <lane id=":10_10_0" index="0" speed="7.41" length="19.11" shape="1144.28,3817.18 1147.59,3822.29 1147.76,3825.76 1144.81,3827.58 1138.73,3827.77"/>
    </edge>
    <edge id=":10_11" function="internal">
        <lane id=":10_11_0" index="0" speed="3.65" length="4.67" shape="1144.28,3817.18 1144.43,3818.61 1144.06,3819.43 1143.19,3819.63 1141.81,3819.21"/>
    </edge>
    <edge id=":10_12" function="internal">
        <lane id=":10_12_0" index="0" speed="5.48" length="9.69" shape="1138.99,3824.58 1142.08,3824.48 1143.57,3823.56 1143.48,3821.80 1141.81,3819.21"/>
    </edge>
    <edge id=":10_13" function="internal">
        <lane id=":10_13_0" index="0" speed="13.89" length="17.50" shape="1138.99,3824.58 1143.14,3824.81 1147.76,3824.80 1152.35,3824.43 1156.38,3823.59"/>
    </edge>
    <edge id=":10_14" function="internal">
        <lane id=":10_14_0" index="0" speed="9.87" length="5.38" shape="1138.99,3824.58 1144.29,3825.48"/>
    </edge>
    <edge id=":10_15" function="internal">
        <lane id=":10_15_0" index="0" speed="3.65" length="1.44" shape="1138.99,3824.58 1140.12,3825.47"/>
    </edge>
    <edge id=":10_18" function="internal">
        <lane id=":10_18_0" index="0" speed="9.87" length="12.63" shape="1144.29,3825.48 1144.66,3825.54 1148.89,3827.36 1151.69,3830.03 1153.05,3833.57"/>
    </edge>
    <edge id=":10_19" function="internal">
        <lane id=":10_19_0" index="0" speed="3.65" length="3.23" shape="1140.12,3825.47 1140.45,3826.31 1139.99,3827.07 1138.73,3827.77"/>
    </edge>
    <edge id=":1006_0" function="internal">
        <lane id=":1006_0_0" index="0" speed="6.36" length="13.15" shape="1570.49,2897.60 1570.47,2893.49 1571.69,2891.35 1574.14,2891.17 1577.84,2892.96"/>
    </edge>
    <edge id=":1006_1" function="internal">
        <lane id=":1006_1_0" index="0" speed="4.05" length="4.38" shape="1576.11,2895.66 1574.88,2895.06 1574.06,2895.12 1573.66,2895.83 1573.66,2897.20"/>
    </edge>
    <edge id=":1023_0" function="internal">
        <lane id=":1023_0_0" index="0" speed="7.74" length="12.74" shape="2081.49,1394.21 2079.14,1393.30 2076.59,1393.76 2073.86,1395.59 2070.93,1398.79"/>
    </edge>
    <edge id=":1023_1" function="internal">
        <lane id=":1023_1_0" index="0" speed="13.89" length="16.53" shape="2081.49,1394.21 2077.96,1392.50 2073.82,1391.58 2069.50,1391.29 2065.47,1391.45"/>
    </edge>
    <edge id=":1023_2" function="internal">
        <lane id=":1023_2_0" index="0" speed="3.65" length="1.27" shape="2081.49,1394.21 2081.03,1393.02"/>
    </edge>
    <edge id=":1023_9" function="internal">
        <lane id=":1023_9_0" index="0" speed="3.65" length="3.40" shape="2081.03,1393.02 2080.97,1392.86 2081.11,1391.98 2081.89,1391.55 2083.33,1391.59"/>
    </edge>
    <edge id=":1023_3" function="internal">
        <lane id=":1023_3_0" index="0" speed="13.89" length="18.70" shape="2065.19,1388.26 2069.55,1388.19 2074.60,1388.68 2079.48,1389.79 2083.33,1391.59"/>
    </edge>
    <edge id=":1023_4" function="internal">
        <lane id=":1023_4_0" index="0" speed="7.40" length="6.75" shape="2065.19,1388.26 2071.17,1388.42 2071.82,1388.82"/>
    </edge>
    <edge id=":1023_5" function="internal">
        <lane id=":1023_5_0" index="0" speed="3.65" length="1.44" shape="2065.19,1388.26 2066.45,1388.95"/>
    </edge>
    <edge id=":1023_10" function="internal">
        <lane id=":1023_10_0" index="0" speed="7.40" length="12.13" shape="2071.82,1388.82 2074.12,1390.22 2074.04,1393.68 2070.93,1398.79"/>
    </edge>
    <edge id=":1023_11" function="internal">
        <lane id=":1023_11_0" index="0" speed="3.65" length="3.23" shape="2066.45,1388.95 2066.92,1389.71 2066.60,1390.54 2065.47,1391.45"/>
    </edge>
    <edge id=":1023_6" function="internal">
        <lane id=":1023_6_0" index="0" speed="5.49" length="9.64" shape="2068.40,1396.82 2069.99,1394.21 2070.03,1392.45 2068.53,1391.53 2065.47,1391.45"/>
    </edge>
    <edge id=":1023_7" function="internal">
        <lane id=":1023_7_0" index="0" speed="9.03" length="17.67" shape="2068.40,1396.82 2072.31,1392.68 2076.10,1390.43 2079.77,1390.07 2083.33,1391.59"/>
    </edge>
    <edge id=":1023_8" function="internal">
        <lane id=":1023_8_0" index="0" speed="3.65" length="4.67" shape="2068.40,1396.82 2069.77,1396.37 2070.65,1396.54 2071.03,1397.35 2070.93,1398.79"/>
    </edge>
    <edge id=":1025_0" function="internal">
        <lane id=":1025_0_0" index="0" speed="6.61" length="7.06" shape="1812.74,1564.80 1810.93,1564.36 1809.27,1564.49 1807.76,1565.19 1806.41,1566.47"/>
    </edge>
    <edge id=":1025_1" function="internal">
        <lane id=":1025_1_0" index="0" speed="10.15" length="10.67" shape="1812.74,1564.80 1810.21,1563.55 1808.13,1561.92 1806.52,1559.93 1805.37,1557.56"/>
    </edge>
    <edge id=":1025_2" function="internal">
        <lane id=":1025_2_0" index="0" speed="3.65" length="1.44" shape="1812.74,1564.80 1811.91,1563.62"/>
    </edge>
    <edge id=":1025_9" function="internal">
        <lane id=":1025_9_0" index="0" speed="3.65" length="3.23" shape="1811.91,1563.62 1811.82,1562.73 1812.49,1562.13 1813.89,1561.81"/>
    </edge>
    <edge id=":1025_3" function="internal">
        <lane id=":1025_3_0" index="0" speed="8.81" length="7.92" shape="1808.38,1556.47 1809.23,1558.21 1810.43,1559.68 1811.99,1560.88 1813.89,1561.81"/>
    </edge>
    <edge id=":1025_4" function="internal">
        <lane id=":1025_4_0" index="0" speed="8.97" length="2.67" shape="1808.38,1556.47 1808.97,1559.08"/>
    </edge>
    <edge id=":1025_5" function="internal">
        <lane id=":1025_5_0" index="0" speed="3.65" length="1.33" shape="1808.38,1556.47 1808.06,1557.76"/>
    </edge>
    <edge id=":1025_10" function="internal">
        <lane id=":1025_10_0" index="0" speed="8.97" length="8.01" shape="1808.97,1559.08 1808.84,1561.61 1807.98,1564.08 1806.41,1566.47"/>
    </edge>
    <edge id=":1025_11" function="internal">
        <lane id=":1025_11_0" index="0" speed="3.65" length="3.34" shape="1808.06,1557.76 1808.03,1557.87 1807.42,1558.52 1806.53,1558.41 1805.37,1557.56"/>
    </edge>
    <edge id=":1025_6" function="internal">
        <lane id=":1025_6_0" index="0" speed="7.54" length="7.37" shape="1803.93,1564.44 1805.04,1562.76 1805.65,1561.06 1805.76,1559.32 1805.37,1557.56"/>
    </edge>
    <edge id=":1025_7" function="internal">
        <lane id=":1025_7_0" index="0" speed="8.13" length="11.09" shape="1803.93,1564.44 1806.07,1562.43 1808.44,1561.33 1811.05,1561.12 1813.89,1561.81"/>
    </edge>
    <edge id=":1025_8" function="internal">
        <lane id=":1025_8_0" index="0" speed="3.65" length="4.67" shape="1803.93,1564.44 1805.31,1564.02 1806.19,1564.22 1806.55,1565.03 1806.41,1566.47"/>
    </edge>
    <edge id=":1055_0" function="internal">
        <lane id=":1055_0_0" index="0" speed="11.97" length="14.28" shape="1973.91,983.80 1971.65,984.97 1969.39,987.13 1967.13,990.29 1964.86,994.44"/>
    </edge>
    <edge id=":1055_1" function="internal">
        <lane id=":1055_1_0" index="0" speed="13.89" length="16.49" shape="1973.91,983.80 1958.02,988.24"/>
    </edge>
    <edge id=":1055_2" function="internal">
        <lane id=":1055_2_0" index="0" speed="3.65" length="1.44" shape="1973.91,983.80 1972.53,983.38"/>
    </edge>
    <edge id=":1055_9" function="internal">
        <lane id=":1055_9_0" index="0" speed="3.65" length="3.23" shape="1972.53,983.38 1971.92,982.73 1972.07,981.84 1973.00,980.74"/>
    </edge>
    <edge id=":1055_3" function="internal">
        <lane id=":1055_3_0" index="0" speed="13.89" length="16.42" shape="1957.19,985.16 1973.00,980.74"/>
    </edge>
    <edge id=":1055_4" function="internal">
        <lane id=":1055_4_0" index="0" speed="7.39" length="5.59" shape="1957.19,985.16 1962.71,984.34"/>
    </edge>
    <edge id=":1055_5" function="internal">
        <lane id=":1055_5_0" index="0" speed="3.65" length="1.44" shape="1957.19,985.16 1958.55,985.61"/>
    </edge>
    <edge id=":1055_10" function="internal">
        <lane id=":1055_10_0" index="0" speed="7.39" length="12.93" shape="1962.71,984.34 1962.94,984.31 1966.14,985.57 1966.78,988.95 1964.86,994.44"/>
    </edge>
    <edge id=":1055_11" function="internal">
        <lane id=":1055_11_0" index="0" speed="3.65" length="3.23" shape="1958.55,985.61 1959.15,986.28 1958.97,987.16 1958.02,988.24"/>
    </edge>
    <edge id=":1055_6" function="internal">
        <lane id=":1055_6_0" index="0" speed="5.51" length="9.56" shape="1961.99,993.04 1962.98,990.20 1962.64,988.46 1960.99,987.81 1958.02,988.24"/>
    </edge>
    <edge id=":1055_7" function="internal">
        <lane id=":1055_7_0" index="0" speed="12.99" length="16.92" shape="1961.99,993.04 1964.61,988.31 1967.32,984.68 1970.11,982.16 1973.00,980.74"/>
    </edge>
    <edge id=":1055_8" function="internal">
        <lane id=":1055_8_0" index="0" speed="3.65" length="4.67" shape="1961.99,993.04 1963.23,992.31 1964.12,992.30 1964.67,993.01 1964.86,994.44"/>
    </edge>
    <edge id=":1078_0" function="internal">
        <lane id=":1078_0_0" index="0" speed="3.65" length="4.67" shape="1081.20,3745.33 1081.06,3743.90 1081.43,3743.08 1082.30,3742.88 1083.68,3743.31"/>
    </edge>
    <edge id=":1080_0" function="internal">
        <lane id=":1080_0_0" index="0" speed="5.83" length="9.49" shape="1175.66,3950.49 1173.28,3949.20 1171.40,3949.26 1170.00,3950.67 1169.10,3953.43"/>
    </edge>
    <edge id=":1080_1" function="internal">
        <lane id=":1080_1_0" index="0" speed="11.11" length="15.62" shape="1175.66,3950.49 1172.25,3948.50 1168.65,3947.49 1164.84,3947.47 1160.83,3948.43"/>
    </edge>
    <edge id=":1080_2" function="internal">
        <lane id=":1080_2_0" index="0" speed="13.46" length="16.20" shape="1175.66,3950.49 1172.68,3947.87 1169.97,3944.67 1167.85,3941.11 1166.67,3937.40"/>
    </edge>
    <edge id=":1080_3" function="internal">
        <lane id=":1080_3_0" index="0" speed="3.65" length="4.67" shape="1175.66,3950.49 1175.18,3949.13 1175.34,3948.25 1176.14,3947.85 1177.58,3947.93"/>
    </edge>
    <edge id=":1080_4" function="internal">
        <lane id=":1080_4_0" index="0" speed="12.47" length="13.85" shape="1169.83,3936.89 1170.82,3940.27 1172.51,3943.13 1174.80,3945.63 1177.58,3947.93"/>
    </edge>
    <edge id=":1080_5" function="internal">
        <lane id=":1080_5_0" index="0" speed="13.89" length="16.63" shape="1169.83,3936.89 1170.19,3940.86 1170.12,3945.17 1169.72,3949.47 1169.10,3953.43"/>
    </edge>
    <edge id=":1080_6" function="internal">
        <lane id=":1080_6_0" index="0" speed="9.08" length="4.06" shape="1169.83,3936.89 1169.75,3940.57 1169.59,3940.91"/>
    </edge>
    <edge id=":1080_7" function="internal">
        <lane id=":1080_7_0" index="0" speed="3.65" length="1.44" shape="1169.83,3936.89 1169.23,3938.20"/>
    </edge>
    <edge id=":1080_16" function="internal">
        <lane id=":1080_16_0" index="0" speed="9.08" length="11.98" shape="1169.59,3940.91 1168.22,3943.73 1165.25,3946.34 1160.83,3948.43"/>
    </edge>
    <edge id=":1080_17" function="internal">
        <lane id=":1080_17_0" index="0" speed="3.65" length="3.23" shape="1169.23,3938.20 1168.51,3938.72 1167.65,3938.46 1166.67,3937.40"/>
    </edge>
    <edge id=":1080_8" function="internal">
        <lane id=":1080_8_0" index="0" speed="7.78" length="11.54" shape="1159.76,3945.41 1163.11,3943.88 1165.37,3942.04 1166.56,3939.88 1166.67,3937.40"/>
    </edge>
    <edge id=":1080_9" function="internal">
        <lane id=":1080_9_0" index="0" speed="12.14" length="18.78" shape="1159.76,3945.41 1164.56,3944.27 1169.13,3944.30 1173.47,3945.53 1177.58,3947.93"/>
    </edge>
    <edge id=":1080_10" function="internal">
        <lane id=":1080_10_0" index="0" speed="7.40" length="16.83" shape="1159.76,3945.41 1164.72,3944.37 1167.92,3945.36 1169.39,3948.38 1169.10,3953.43"/>
    </edge>
    <edge id=":1080_11" function="internal">
        <lane id=":1080_11_0" index="0" speed="3.65" length="4.67" shape="1159.76,3945.41 1161.16,3945.77 1161.81,3946.39 1161.69,3947.28 1160.83,3948.43"/>
    </edge>
    <edge id=":1080_12" function="internal">
        <lane id=":1080_12_0" index="0" speed="5.66" length="9.24" shape="1165.96,3952.83 1166.11,3950.06 1165.31,3948.40 1163.55,3947.86 1160.83,3948.43"/>
    </edge>
    <edge id=":1080_13" function="internal">
        <lane id=":1080_13_0" index="0" speed="13.89" length="15.52" shape="1165.96,3952.83 1166.58,3949.04 1166.97,3945.13 1167.03,3941.20 1166.67,3937.40"/>
    </edge>
    <edge id=":1080_14" function="internal">
        <lane id=":1080_14_0" index="0" speed="7.50" length="4.28" shape="1165.96,3952.83 1167.30,3948.77"/>
    </edge>
    <edge id=":1080_15" function="internal">
        <lane id=":1080_15_0" index="0" speed="3.65" length="1.44" shape="1165.96,3952.83 1166.97,3951.80"/>
    </edge>
    <edge id=":1080_18" function="internal">
        <lane id=":1080_18_0" index="0" speed="7.50" length="12.38" shape="1167.30,3948.77 1167.54,3948.06 1170.00,3945.65 1173.35,3945.60 1177.58,3947.93"/>
    </edge>
    <edge id=":1080_19" function="internal">
        <lane id=":1080_19_0" index="0" speed="3.65" length="3.23" shape="1166.97,3951.80 1167.83,3951.56 1168.54,3952.10 1169.10,3953.43"/>
    </edge>
    <edge id=":1115_0" function="internal">
        <lane id=":1115_0_0" index="0" speed="10.90" length="15.77" shape="1828.71,3057.59 1824.98,3055.90 1821.23,3055.27 1817.46,3055.69 1813.66,3057.16"/>
    </edge>
    <edge id=":1115_1" function="internal">
        <lane id=":1115_1_0" index="0" speed="13.89" length="19.09" shape="1828.71,3057.59 1812.47,3047.54"/>
    </edge>
    <edge id=":1115_2" function="internal">
        <lane id=":1115_2_0" index="0" speed="7.40" length="16.80" shape="1828.71,3057.59 1824.75,3054.45 1823.46,3051.36 1824.84,3048.30 1828.88,3045.27"/>
    </edge>
    <edge id=":1115_3" function="internal">
        <lane id=":1115_3_0" index="0" speed="3.65" length="4.67" shape="1828.71,3057.59 1828.09,3056.28 1828.16,3055.39 1828.91,3054.91 1830.35,3054.84"/>
    </edge>
    <edge id=":1115_4" function="internal">
        <lane id=":1115_4_0" index="0" speed="5.67" length="9.24" shape="1830.44,3048.06 1828.22,3049.73 1827.46,3051.41 1828.17,3053.11 1830.35,3054.84"/>
    </edge>
    <edge id=":1115_5" function="internal">
        <lane id=":1115_5_0" index="0" speed="13.89" length="19.09" shape="1830.44,3048.06 1813.66,3057.16"/>
    </edge>
    <edge id=":1115_6" function="internal">
        <lane id=":1115_6_0" index="0" speed="11.36" length="5.38" shape="1830.44,3048.06 1826.32,3049.46 1825.29,3049.54"/>
    </edge>
    <edge id=":1115_7" function="internal">
        <lane id=":1115_7_0" index="0" speed="3.65" length="1.44" shape="1830.44,3048.06 1829.00,3047.95"/>
    </edge>
    <edge id=":1115_16" function="internal">
        <lane id=":1115_16_0" index="0" speed="11.36" length="13.20" shape="1825.29,3049.54 1821.39,3049.82 1816.49,3049.18 1812.47,3047.54"/>
    </edge>
    <edge id=":1115_17" function="internal">
        <lane id=":1115_17_0" index="0" speed="3.65" length="3.23" shape="1829.00,3047.95 1828.26,3047.45 1828.22,3046.56 1828.88,3045.27"/>
    </edge>
    <edge id=":1115_8" function="internal">
        <lane id=":1115_8_0" index="0" speed="10.40" length="15.47" shape="1814.20,3044.85 1817.81,3046.61 1821.46,3047.26 1825.15,3046.82 1828.88,3045.27"/>
    </edge>
    <edge id=":1115_9" function="internal">
        <lane id=":1115_9_0" index="0" speed="13.89" length="18.99" shape="1814.20,3044.85 1830.35,3054.84"/>
    </edge>
    <edge id=":1115_10" function="internal">
        <lane id=":1115_10_0" index="0" speed="7.41" length="16.76" shape="1814.20,3044.85 1818.03,3048.10 1819.22,3051.24 1817.76,3054.26 1813.66,3057.16"/>
    </edge>
    <edge id=":1115_11" function="internal">
        <lane id=":1115_11_0" index="0" speed="3.65" length="4.67" shape="1814.20,3044.85 1814.78,3046.17 1814.68,3047.06 1813.91,3047.52 1812.47,3047.54"/>
    </edge>
    <edge id=":1115_12" function="internal">
        <lane id=":1115_12_0" index="0" speed="5.68" length="9.23" shape="1812.17,3054.32 1814.43,3052.72 1815.24,3051.06 1814.58,3049.33 1812.47,3047.54"/>
    </edge>
    <edge id=":1115_13" function="internal">
        <lane id=":1115_13_0" index="0" speed="13.89" length="19.00" shape="1812.17,3054.32 1828.88,3045.27"/>
    </edge>
    <edge id=":1115_14" function="internal">
        <lane id=":1115_14_0" index="0" speed="11.84" length="5.07" shape="1812.17,3054.32 1816.32,3053.01 1817.03,3052.96"/>
    </edge>
    <edge id=":1115_15" function="internal">
        <lane id=":1115_15_0" index="0" speed="3.65" length="1.44" shape="1812.17,3054.32 1813.61,3054.47"/>
    </edge>
    <edge id=":1115_18" function="internal">
        <lane id=":1115_18_0" index="0" speed="11.84" length="13.65" shape="1817.03,3052.96 1821.31,3052.67 1826.26,3053.29 1830.35,3054.84"/>
    </edge>
    <edge id=":1115_19" function="internal">
        <lane id=":1115_19_0" index="0" speed="3.65" length="3.23" shape="1813.61,3054.47 1814.33,3055.00 1814.35,3055.89 1813.66,3057.16"/>
    </edge>
    <edge id=":1143_0" function="internal">
        <lane id=":1143_0_0" index="0" speed="6.18" length="11.09" shape="657.64,3791.68 656.73,3788.49 657.23,3786.31 659.13,3785.14 662.44,3784.97"/>
    </edge>
    <edge id=":1143_1" function="internal">
        <lane id=":1143_1_0" index="0" speed="3.96" length="3.70" shape="662.17,3788.16 661.07,3788.22 660.44,3788.61 660.27,3789.33 660.58,3790.39"/>
    </edge>
    <edge id=":1148_0" function="internal">
        <lane id=":1148_0_0" index="0" speed="13.89" length="15.73" shape="1919.96,1604.51 1916.19,1603.67 1912.31,1602.68 1908.47,1601.55 1904.83,1600.27"/>
    </edge>
    <edge id=":1148_1" function="internal">
        <lane id=":1148_1_0" index="0" speed="7.44" length="4.84" shape="1919.96,1604.51 1915.40,1602.88"/>
    </edge>
    <edge id=":1148_2" function="internal">
        <lane id=":1148_2_0" index="0" speed="3.65" length="1.44" shape="1919.96,1604.51 1918.95,1603.48"/>
    </edge>
    <edge id=":1148_9" function="internal">
        <lane id=":1148_9_0" index="0" speed="7.44" length="11.51" shape="1915.40,1602.88 1913.17,1600.40 1913.27,1597.07 1915.70,1592.88"/>
    </edge>
    <edge id=":1148_10" function="internal">
        <lane id=":1148_10_0" index="0" speed="3.65" length="3.23" shape="1918.95,1603.48 1918.72,1602.61 1919.28,1601.91 1920.61,1601.37"/>
    </edge>
    <edge id=":1148_3" function="internal">
        <lane id=":1148_3_0" index="0" speed="5.75" length="9.18" shape="1918.22,1594.85 1916.86,1597.20 1916.80,1599.07 1918.06,1600.46 1920.61,1601.37"/>
    </edge>
    <edge id=":1148_4" function="internal">
        <lane id=":1148_4_0" index="0" speed="9.42" length="15.56" shape="1918.22,1594.85 1915.01,1598.24 1911.70,1600.28 1908.31,1600.95 1904.83,1600.27"/>
    </edge>
    <edge id=":1148_5" function="internal">
        <lane id=":1148_5_0" index="0" speed="3.65" length="4.67" shape="1918.22,1594.85 1916.85,1595.30 1915.98,1595.13 1915.59,1594.32 1915.70,1592.88"/>
    </edge>
    <edge id=":1148_6" function="internal">
        <lane id=":1148_6_0" index="0" speed="8.15" length="11.46" shape="1905.98,1597.29 1908.40,1597.71 1910.83,1597.12 1913.26,1595.51 1915.70,1592.88"/>
    </edge>
    <edge id=":1148_7" function="internal">
        <lane id=":1148_7_0" index="0" speed="13.89" length="15.21" shape="1905.98,1597.29 1909.54,1598.54 1913.21,1599.62 1916.92,1600.56 1920.61,1601.37"/>
    </edge>
    <edge id=":1148_8" function="internal">
        <lane id=":1148_8_0" index="0" speed="3.65" length="1.44" shape="1905.98,1597.29 1906.81,1598.46"/>
    </edge>
    <edge id=":1148_11" function="internal">
        <lane id=":1148_11_0" index="0" speed="3.65" length="3.23" shape="1906.81,1598.46 1906.89,1599.35 1906.23,1599.96 1904.83,1600.27"/>
    </edge>
    <edge id=":12_0" function="internal">
        <lane id=":12_0_0" index="0" speed="13.89" length="16.68" shape="1514.28,3383.93 1511.61,3380.91 1508.46,3377.90 1505.03,3375.28 1501.52,3373.40"/>
    </edge>
    <edge id=":12_1" function="internal">
        <lane id=":12_1_0" index="0" speed="11.41" length="19.57" shape="1514.28,3383.93 1511.26,3379.35 1509.70,3374.79 1509.59,3370.25 1510.94,3365.73"/>
    </edge>
    <edge id=":12_2" function="internal">
        <lane id=":12_2_0" index="0" speed="7.38" length="18.29" shape="1514.28,3383.93 1511.22,3379.10 1511.07,3375.68 1513.84,3373.66 1519.52,3373.04"/>
    </edge>
    <edge id=":12_3" function="internal">
        <lane id=":12_3_0" index="0" speed="3.65" length="4.67" shape="1514.28,3383.93 1514.14,3382.49 1514.51,3381.68 1515.38,3381.48 1516.76,3381.90"/>
    </edge>
    <edge id=":12_4" function="internal">
        <lane id=":12_4_0" index="0" speed="5.52" length="9.51" shape="1519.49,3376.24 1516.53,3376.56 1515.09,3377.61 1515.17,3379.39 1516.76,3381.90"/>
    </edge>
    <edge id=":12_5" function="internal">
        <lane id=":12_5_0" index="0" speed="13.89" length="18.25" shape="1519.49,3376.24 1515.22,3376.03 1510.37,3375.49 1505.59,3374.61 1501.52,3373.40"/>
    </edge>
    <edge id=":12_6" function="internal">
        <lane id=":12_6_0" index="0" speed="7.76" length="6.09" shape="1519.49,3376.24 1513.96,3375.52 1513.52,3375.26"/>
    </edge>
    <edge id=":12_7" function="internal">
        <lane id=":12_7_0" index="0" speed="3.65" length="1.44" shape="1519.49,3376.24 1518.30,3375.43"/>
    </edge>
    <edge id=":12_16" function="internal">
        <lane id=":12_16_0" index="0" speed="7.76" length="11.44" shape="1513.52,3375.26 1510.69,3373.53 1509.68,3370.27 1510.94,3365.73"/>
    </edge>
    <edge id=":12_17" function="internal">
        <lane id=":12_17_0" index="0" speed="3.65" length="3.23" shape="1518.30,3375.43 1517.91,3374.62 1518.32,3373.83 1519.52,3373.04"/>
    </edge>
    <edge id=":12_8" function="internal">
        <lane id=":12_8_0" index="0" speed="6.17" length="10.57" shape="1513.85,3367.07 1513.19,3369.64 1513.91,3371.50 1516.02,3372.63 1519.52,3373.04"/>
    </edge>
    <edge id=":12_9" function="internal">