<?xml version="1.0" encoding="UTF-8"?>

<!-- generated on 2024-02-14 14:06:13 by Eclipse SUMO duarouter Version 1.18.0
<configuration xmlns:xsi="http://www.w3.org/2001/XMLSchema-instance" xsi:noNamespaceSchemaLocation="http://sumo.dlr.de/xsd/duarouterConfiguration.xsd">

    <input>
        <net-file value="randnet_1.net.xml"/>
        <route-files value="trips.trips.xml"/>
    </input>

    <output>
        <output-file value="dijkstra-routes-500.rou.xml"/>
    </output>

    <processing>
        <routing-algorithm value="dijkstra"/>
    </processing>

</configuration>
-->

<routes xmlns:xsi="http://www.w3.org/2001/XMLSchema-instance" xsi:noNamespaceSchemaLocation="http://sumo.dlr.de/xsd/routes_file.xsd">
    <vehicle id="0" depart="0.00">
        <route edges="2140 2397 3385 4592 -4719 -4309 -3054 -1690 -1151 -1026 -987 1239 -1239"/>
    </vehicle>
    <vehicle id="1" depart="1.00">
        <route edges="-3505 -2824 -2439 -2142 2140 2397 3385 -3385"/>
    </vehicle>
    <vehicle id="2" depart="2.00">
        <route edges="3038 -3038 -1842 -691 -448 460 -520 -15 -3 11 1144 3035"/>
    </vehicle>
    <vehicle id="3" depart="3.00">
        <route edges="4703 -2896 -418 -184 192 324 351 502 548 2728 4762 -4727 -4309 -3054 -1842"/>
    </vehicle>
    <vehicle id="4" depart="4.00">
        <route edges="-4741 -4319 -2616 -1559 -1239 -676 -673 674 -543 -520 -15 -3 11 1081 1265 -1265"/>
    </vehicle>
    <vehicle id="5" depart="5.00">
        <route edges="-304 304 346 448 691 1842 -1690 -1151 1233 1450"/>
    </vehicle>
    <vehicle id="6" depart="6.00">
        <route edges="-1233 1151 1690 -1842 -691 -448 -346 -304"/>
    </vehicle>
    <vehicle id="7" depart="7.00">
        <route edges="2163 2479 -2999 -332 -64 -59 58 63 183"/>
    </vehicle>
    <vehicle id="8" depart="8.00">
        <route edges="-3054 3054 4309 4727 -4762 -2728 -548 550 2392"/>
    </vehicle>
    <vehicle id="9" depart="9.00">
        <route edges="3724 -3033 -1273 -1081 -11 3 15 520 543 -674 673 676 987 1056 -1056"/>
    </vehicle>
    <vehicle id="10" depart="10.00">
        <route edges="3719 -3586 -374 -70 -40 -25 17 -13 15 667 956 960 993 2386 3264"/>
    </vehicle>
    <vehicle id="11" depart="11.00">
        <route edges="-4054 -3484 3472 -3890 3892 -4582 -3884 -2726"/>
    </vehicle>
    <vehicle id="12" depart="12.00">
        <route edges="670 -534 -430 448 -448"/>
    </vehicle>
    <vehicle id="13" depart="13.00">
        <route edges="-1899 -1450 -1233 -1026 -987 -676 690 1806 2007 -2093"/>
    </vehicle>
    <vehicle id="14" depart="14.00">
        <route edges="42 -42 40 70 362 2447 2830 -3510 2148 2441"/>
    </vehicle>
    <vehicle id="15" depart="15.00">
        <route edges="3719 4703 -3516 2447 2830 -3510 -360 356 1575 1822 2142 2413 2819 3486"/>
    </vehicle>
    <vehicle id="16" depart="16.00">
        <route edges="-993 -960 -956 -667 -15 -3 7"/>
    </vehicle>
    <vehicle id="17" depart="17.00">
        <route edges="-4363 -2280 -2005 -1804 1800 -676 -670 672 1842"/>
    </vehicle>
    <vehicle id="18" depart="18.00">
        <route edges="3892 -4582 -3884 -2726 -548 -502 -351 -324 -192 -68 64 332 2999 -2479 2479"/>
    </vehicle>
    <vehicle id="19" depart="19.00">
        <route edges="4311 -4311 -4303 4309 4727 -4762 -2728 -548 550 -655 -356 360 2148"/>
    </vehicle>
    <vehicle id="20" depart="20.00">
        <route edges="2819 3472 -3890 3892 -4582 4592 -4719 -4309 -3054 -1690 -1151 -1026 1056 1796 1798 -1559"/>
    </vehicle>
    <vehicle id="21" depart="21.00">
        <route edges="-322 322 351 502 550 -655 1575 1822 2142 2413 2819 3472 -3890"/>
    </vehicle>
    <vehicle id="22" depart="22.00">
        <route edges="-1812 -1058 -690 -534 -430 -346"/>
    </vehicle>
    <vehicle id="23" depart="23.00">
        <route edges="-2007 -4754 -4469 -3871"/>
    </vehicle>
    <vehicle id="24" depart="24.00">
        <route edges="2093 2132 3880 -3871 -3251 2005 2280 4321 -4739"/>
    </vehicle>
    <vehicle id="25" depart="25.00">
        <route edges="-4319 -2616 -1559 -1239 -676 -534 -430 -346 -304 322 -324"/>
    </vehicle>
    <vehicle id="26" depart="26.00">
        <route edges="-3484 3472 -3890 3892 -4582 -3884 -2726 -548 548"/>
    </vehicle>
    <vehicle id="27" depart="27.00">
        <route edges="2157 -2157 2163 2479 -2999 2457"/>
    </vehicle>
    <vehicle id="28" depart="28.00">
        <route edges="-2745 1247 -836 -508 -183 181 306 497 502 550 -655 1575 1822 2142 2413 2819 3486"/>
    </vehicle>
    <vehicle id="29" depart="29.00">
        <route edges="-2512 2512 3751 -4303 4309 4727 -4762 -2728 -548 -502"/>
    </vehicle>
    <vehicle id="30" depart="30.00">
        <route edges="960 -960 -956 -537 -460 496 544 497 502 550 -655 1575 1822 2142 2411 2807"/>
    </vehicle>
    <vehicle id="31" depart="31.00">
        <route edges="1144 3035 -3033 -1273 -1081 -11 9 19 36 63 181 306"/>
    </vehicle>
    <vehicle id="32" depart="32.00">
        <route edges="418 -418 -70 -40 -25 17 -13 15 667 956 968 997 1812 2132 3880 -3871 3871"/>
    </vehicle>
    <vehicle id="33" depart="33.00">
        <route edges="-324 -192 -68 -40 42 -56 -1129 1273 -1273"/>
    </vehicle>
    <vehicle id="34" depart="34.00">
        <route edges="-3874 3874 -3266 -993 -960 -956 -667 -15 13 -17 25 40 70 374 3586 -3719"/>
    </vehicle>
    <vehicle id="35" depart="35.00">
        <route edges="-3024 -2497 2479 -2999 -332 -64 -59 58"/>
    </vehicle>
    <vehicle id="36" depart="36.00">
        <route edges="448 -448 460 -520 -15 -3 11 1081 1273 3033 3745 -4292"/>
    </vehicle>
    <vehicle id="37" depart="37.00">
        <route edges="2386 -2386 -993 -960 -956 -537"/>
    </vehicle>
    <vehicle id="38" depart="38.00">
        <route edges="496 -496 460 537 956 960 993 -993"/>
    </vehicle>
    <vehicle id="39" depart="39.00">
        <route edges="-3472 -2819 -2413 2439 2824 3503 -3507"/>
    </vehicle>
    <vehicle id="40" depart="40.00">
        <route edges="1151 1690 -1842 -691 -448 -346 -304 -181 -63 -36"/>
    </vehicle>
    <vehicle id="41" depart="41.00">
        <route edges="1559 -1798 -1796 -1056 1026 1151 1690 3054 4309 4727 -4762 4762"/>
    </vehicle>
    <vehicle id="42" depart="42.00">
        <route edges="-4701 -2842 -2447 -362 -70 -40 -25 17 948 -1247 2797 -3371"/>
    </vehicle>
    <vehicle id="43" depart="43.00">
        <route edges="993 2093 2132 3880 -3871 -3251 -1804 -1561 1555"/>
    </vehicle>
    <vehicle id="44" depart="44.00">
        <route edges="-1842 -672 670 676 -1800 -1561"/>
    </vehicle>
    <vehicle id="45" depart="45.00">
        <route edges="-2140 2140 2409 3400 -3883 -2726 2726"/>
    </vehicle>
    <vehicle id="46" depart="46.00">
        <route edges="3511 -3511 -360 -328 324 -322 304 346 430 534 -673"/>
    </vehicle>
    <vehicle id="47" depart="47.00">
        <route edges="-173 -42 -25 17 -832 -508"/>
    </vehicle>
    <vehicle id="48" depart="48.00">
        <route edges="991 997 -1058 -690 676 987 1056 1796"/>
    </vehicle>
    <vehicle id="49" depart="49.00">
        <route edges="691 -691 -448 496 544 497 502 550 -655 -356 360 3511 4701"/>
    </vehicle>
    <vehicle id="50" depart="50.00">
        <route edges="-1079 -11 9 19 36 63 181 306 497 502 548 2726 3883 -3400 3442"/>
    </vehicle>
    <vehicle id="51" depart="51.00">
        <route edges="2475 3019 3724 -3033 -1273 -1081 -11 3 15 667 956 968 997 -1058 1806"/>
    </vehicle>
    <vehicle id="52" depart="52.00">
        <route edges="-3484 -2819 2819"/>
    </vehicle>
    <vehicle id="53" depart="53.00">
        <route edges="-2142 -1822 -1575 -356 -328 -192 -68 -40 42 -56 -7"/>
    </vehicle>
    <vehicle id="54" depart="54.00">
        <route edges="-4989 -4707 3719 4703 -2896 661"/>
    </vehicle>
    <vehicle id="55" depart="55.00">
        <route edges="448 -448 -346 -304 -181 -63 -36"/>
    </vehicle>
    <vehicle id="56" depart="56.00">
        <route edges="-674 -528 -430 -346 -304 322 -324 -192 184 418 2896 -2896"/>
    </vehicle>
    <vehicle id="57" depart="57.00">
        <route edges="4860 -3510 -360 356 655 -550 548 2728 4762 -4727 4727"/>
    </vehicle>
    <vehicle id="58" depart="58.00">
        <route edges="-3700 -2457 -332 -64 68 192 328 356 1575 1822 2142 2411 2807"/>
    </vehicle>
    <vehicle id="59" depart="59.00">
        <route edges="1804 2005 2278 -2616"/>
    </vehicle>
    <vehicle id="60" depart="60.00">
        <route edges="3385 -3884 -2726 -548 -502 -497 -306 -181 181"/>
    </vehicle>
    <vehicle id="61" depart="61.00">
        <route edges="3484 4054 -3496 3472 -3890 3892 -4582 4592 -4719 -4309 -3054 -1690 -1151 -1026 1056 1796"/>
    </vehicle>
    <vehicle id="62" depart="62.00">
        <route edges="-1007 -948 -13 15 520 -460 448 691 1842 3038 3751 4311 -4311"/>
    </vehicle>
    <vehicle id="63" depart="63.00">
        <route edges="-1144 -11 3 15 520 -460 430 534"/>
    </vehicle>
    <vehicle id="64" depart="64.00">
        <route edges="4582 -4582 4592 -4719 -4309 -3054 -1690 -1151 -1026 1056 1796 1798 2616 4319"/>
    </vehicle>
    <vehicle id="65" depart="65.00">
        <route edges="-374 -70 -40 -25 17 -17"/>
    </vehicle>
    <vehicle id="66" depart="66.00">
        <route edges="4582 -4582 -3884 -2726 -548 -502 -497 -306 -181 -63 63"/>
    </vehicle>
    <vehicle id="67" depart="67.00">
        <route edges="-1831 -1589 -1265 -1081 -11 3 15 520 -460 448 691 1842 -1690 -1151 1151"/>
    </vehicle>
    <vehicle id="68" depart="68.00">
        <route edges="-1796 -1056 -987 -676 -673 674 -543 -520 -15 -3 7 339 -420 2457 3700"/>
    </vehicle>
    <vehicle id="69" depart="69.00">
        <route edges="3399 -3399 2801 -2413"/>
    </vehicle>
    <vehicle id="70" depart="70.00">
        <route edges="-548 -502 -351 -324 -192 -68 64 332 420 -1831 1837"/>
    </vehicle>
    <vehicle id="71" depart="71.00">
        <route edges="-3472 3472 -3890 3892 -4582 4592 -4719 -4309 4303 4311 4729"/>
    </vehicle>
    <vehicle id="72" depart="72.00">
        <route edges="-4743 -4323 -2280 -2005 3251 3871 -3880 -3878 -3874 -3256"/>
    </vehicle>
    <vehicle id="73" depart="73.00">
        <route edges="1007 1116 1247 -836 -508 -183 181 306 497 502 550 -655 1575 1822 2142 2413 2819 3486"/>
    </vehicle>
    <vehicle id="74" depart="74.00">
        <route edges="-30 36 63 181 304 346 -427"/>
    </vehicle>
    <vehicle id="75" depart="75.00">
        <route edges="991 -968 -956 -667 -15 13 -17 25 40 70 362 2447 2830"/>
    </vehicle>
    <vehicle id="76" depart="76.00">
        <route edges="-4796 -4761 -2728 -548 -502 -351 -324 -192 -68 -40 42 -56 -1129 1265 1583"/>
    </vehicle>
    <vehicle id="77" depart="77.00">
        <route edges="-2163 2163 2479 -2999 -332 -64 68 192 324 351 502 548 2726 3884 -3385"/>
    </vehicle>
    <vehicle id="78" depart="78.00">
        <route edges="-40 -25 17 -13 15 667 956 960 993 2386"/>
    </vehicle>
    <vehicle id="79" depart="79.00">
        <route edges="-324 324 -322 -181 183 508 836 -1247 2797 -3371"/>
    </vehicle>
    <vehicle id="80" depart="80.00">
        <route edges="-1798 -1555 -1239 -676 -673 674 -543 -520 -15 13 948 -1247 2745"/>
    </vehicle>
    <vehicle id="81" depart="81.00">
        <route edges="-324 328 360 3510 -4860 4860"/>
    </vehicle>
    <vehicle id="82" depart="82.00">
        <route edges="4309 -4309 -3054 -1690 -1151 -1026 -987 -1800 1804 -1804"/>
    </vehicle>
    <vehicle id="83" depart="83.00">
        <route edges="-3264 -2386 -993 -960 -956 -667 -15 -3 11 1081 1273 3033 -3724 -3019 3019"/>
    </vehicle>
    <vehicle id="84" depart="84.00">
        <route edges="-3035 -1144 1081 1129 56 -42 40 68 192 328 354 4165 -2441"/>
    </vehicle>
    <vehicle id="85" depart="85.00">
        <route edges="543 829 968 997 1812 2132"/>
    </vehicle>
    <vehicle id="86" depart="86.00">
        <route edges="-543 -460 496 544 497 502 548 2726 3883"/>
    </vehicle>
    <vehicle id="87" depart="87.00">
        <route edges="3719 -3719 -3003 420 -3021"/>
    </vehicle>
    <vehicle id="88" depart="88.00">
        <route edges="-192 192 324 -322 304 346 448 691 -691"/>
    </vehicle>
    <vehicle id="89" depart="89.00">
        <route edges="-4743 -4323 -2280 -2005 -1804 1800 987 1026"/>
    </vehicle>
    <vehicle id="90" depart="90.00">
        <route edges="3021 -339 -1129 1273 3033"/>
    </vehicle>
    <vehicle id="91" depart="91.00">
        <route edges="9 17 -13 15 667 956 968 997 1812 2132 -2132"/>
    </vehicle>
    <vehicle id="92" depart="92.00">
        <route edges="-4707 3719 -3586 -374 -184 192 324 351 502 548 2726 3884 4582 -4582"/>
    </vehicle>
    <vehicle id="93" depart="93.00">
        <route edges="4311 -4311 -4303 4309 4727 -4762 -2728 -548 -502 -351"/>
    </vehicle>
    <vehicle id="94" depart="94.00">
        <route edges="-2842 -2447 -362 -70 -40 -25 17 -13 15 667 956 -956"/>
    </vehicle>
    <vehicle id="95" depart="95.00">
        <route edges="-4741 -4319 -2278 -2005 3251 3871 -3871"/>
    </vehicle>
    <vehicle id="96" depart="96.00">
        <route edges="-3385 3381 -3883 -2726 -548 -502 -497 -544 -524 524"/>
    </vehicle>
    <vehicle id="97" depart="97.00">
        <route edges="-4860 -4696 -4183 -2892 2842 4701"/>
    </vehicle>
    <vehicle id="98" depart="98.00">
        <route edges="11 1081 1129 56 -42 40 68 192 328 356 1575 -1575"/>
    </vehicle>
    <vehicle id="99" depart="99.00">
        <route edges="997 1812 2132 3880 -3871 -3251 2005 2280 4323"/>
    </vehicle>
    <vehicle id="100" depart="100.00">
        <route edges="690 -690 -534 526"/>
    </vehicle>
    <vehicle id="101" depart="101.00">
        <route edges="420 -420 -332 -64 68 192 328 356 1575 1822 2142 2413 2819 -2819"/>
    </vehicle>
    <vehicle id="102" depart="102.00">
        <route edges="-63 63 183 508 832 -13 15 667 956 960 993 3266 -3266"/>
    </vehicle>
    <vehicle id="103" depart="103.00">
        <route edges="-4703 -3586 -374 -70 -40 -25 17 -17"/>
    </vehicle>
    <vehicle id="104" depart="104.00">
        <route edges="-4469 -3880 -2132 -1812 -997 -968 -956 -667 -15 13 948"/>
    </vehicle>
    <vehicle id="105" depart="105.00">
        <route edges="-3472 3472 -3890 3892 -4582 4592 -4719 -4309 -3054 -1842 -672 670 690 1058 1812 2132 3880"/>
    </vehicle>
    <vehicle id="106" depart="106.00">
        <route edges="-502 -497 -544 -496 430 534 -673"/>
    </vehicle>
    <vehicle id="107" depart="107.00">
        <route edges="670 690 1058 -997 -991 991"/>
    </vehicle>
    <vehicle id="108" depart="108.00">
        <route edges="1129 56 -42 -30 36 63 181 304 342"/>
    </vehicle>
    <vehicle id="109" depart="109.00">
        <route edges="-2477 2479 -2999 -332 -64 68 192 328 356 1575 1822 2142 2413 2819 3496 -4054"/>
    </vehicle>
    <vehicle id="110" depart="110.00">
        <route edges="690 1058 -997 -968 -956 -667 -15 -3 11 1081 1265 1589 1837 2157"/>
    </vehicle>
    <vehicle id="111" depart="111.00">
        <route edges="1024 2512 3751 -4303 4309 4727 -4762 -2728 -548 550 -655 -356 360 3510 -2830 -2447 3516"/>
    </vehicle>
    <vehicle id="112" depart="112.00">
        <route edges="-1583 -1265 -1081 -11 3 15 667 956 968 997 1812 2132 3880 -3871 -3251 2005 2278"/>
    </vehicle>
    <vehicle id="113" depart="113.00">
        <route edges="-676 -534 -430 460"/>
    </vehicle>
    <vehicle id="114" depart="114.00">
        <route edges="-2479 2479 3021 -339 -7 3 15 520 543 -674 673"/>
    </vehicle>
    <vehicle id="115" depart="115.00">
        <route edges="-1812 -997 -968 -956 -667 -15 -3 7 339 -420 3003 -3003"/>
    </vehicle>
    <vehicle id="116" depart="116.00">
        <route edges="1690 -1842 -691 -448 460 -520 -15 -3 11 1144 3035"/>
    </vehicle>
    <vehicle id="117" depart="117.00">
        <route edges="-3256 -2386 -993 -960 -956 -537 -460 496 544 497 502 548 2726 3883 -3381 -2397"/>
    </vehicle>
    <vehicle id="118" depart="118.00">
        <route edges="4696 4860 -3510 2148 2443 3507 -3503 3503 -3507"/>
    </vehicle>
    <vehicle id="119" depart="119.00">
        <route edges="1690 -1842 -691 -448 460 -520 -15 -3 7 339 -3021 -2479 2497"/>
    </vehicle>
    <vehicle id="120" depart="120.00">
        <route edges="-4738 -4313 1796 1798 2616 -2278 2278"/>
    </vehicle>
    <vehicle id="121" depart="121.00">
        <route edges="-9 3 15 520 -460 496 544"/>
    </vehicle>
    <vehicle id="122" depart="122.00">
        <route edges="-3007 3019 3724 -3033 -1273 1129 56 -42 40 68 192 324 351 502 548 2726 3883 -3400 3400"/>
    </vehicle>
    <vehicle id="123" depart="123.00">
        <route edges="-3266 -993 -960 -956 -537"/>
    </vehicle>
    <vehicle id="124" depart="124.00">
        <route edges="2443 3507 -3503 3505 4161 -4161"/>
    </vehicle>
    <vehicle id="125" depart="125.00">
        <route edges="-3874 3874 -3266 -993 -960 -956 -537 -460 496 544 497 502 550 -655 -356 356"/>
    </vehicle>
    <vehicle id="126" depart="126.00">
        <route edges="-1800 1804 3251 3871 -3880 -2132 -2093 -993"/>
    </vehicle>
    <vehicle id="127" depart="127.00">
        <route edges="997 -997 -991 991"/>
    </vehicle>
    <vehicle id="128" depart="128.00">
        <route edges="-1804 1804 3251 3871 -3880 -3878 -3874 -3256"/>
    </vehicle>
    <vehicle id="129" depart="129.00">
        <route edges="-3472 -2819 -2413 -2142 -1822 -1575 655 -550 -502 -497 -544 -496 460 543"/>
    </vehicle>
    <vehicle id="130" depart="130.00">
        <route edges="4593 -3928 3892 -4582 4592 -4719 -4309 4303 4311 4729 -4734 4738"/>
    </vehicle>
    <vehicle id="131" depart="131.00">
        <route edges="-4319 -2616 -1559 -1239 -676 -673 674 -543 -520 -15 13 948 -1247 2797 -3371 -2745"/>
    </vehicle>
    <vehicle id="132" depart="132.00">
        <route edges="40 68 192 328"/>
    </vehicle>
    <vehicle id="133" depart="133.00">
        <route edges="181 304 346 460 537 956"/>
    </vehicle>
    <vehicle id="134" depart="134.00">
        <route edges="2386 -2386 2093 -1812 -1058"/>
    </vehicle>
    <vehicle id="135" depart="135.00">
        <route edges="3871 4469 4754 -1806 -690 -534 -430 -346 -304 322 -324 328 354 4165 -4161"/>
    </vehicle>
    <vehicle id="136" depart="136.00">
        <route edges="2409 3400 -3883 -2726 -548 550"/>
    </vehicle>
    <vehicle id="137" depart="137.00">
        <route edges="-2409 2409 3400 -3883 -2726 -548 -502 -497 -544 -496 460 537 956 960 993 2386 -2386"/>
    </vehicle>
    <vehicle id="138" depart="138.00">
        <route edges="-2093 -993 -960 -956 -537 -460 448 691 1842"/>
    </vehicle>
    <vehicle id="139" depart="139.00">
        <route edges="-3500 -2819 -2413 -2142 -1822 -1573 2146 2443"/>
    </vehicle>
    <vehicle id="140" depart="140.00">
        <route edges="2999 -2999 -332 -64 68 192 324 351 -497 -306"/>
    </vehicle>
    <vehicle id="141" depart="141.00">
        <route edges="2007 -1812 -997 -968 -956 -537 -460 496 544 497 502 550 -655 -356 360 -360"/>
    </vehicle>
    <vehicle id="142" depart="142.00">
        <route edges="-655 -356 360 3510 -4860 4860"/>
    </vehicle>
    <vehicle id="143" depart="143.00">
        <route edges="4183 -4179 -3510 -360 -328 -192"/>
    </vehicle>
    <vehicle id="144" depart="144.00">
        <route edges="-4743 -4323 -2280 -2005 -1804 1800 987 1024 2512 3751 -3751"/>
    </vehicle>
    <vehicle id="145" depart="145.00">
        <route edges="-1024 -987 -676 -673 674 -543 -520 -15 -3 11 1081 1273 3033 3745"/>
    </vehicle>
    <vehicle id="146" depart="146.00">
        <route edges="2132 -2132 -1812 -997 -968 -956 -667 -15 13 -832 -508 -183 -63 -36"/>
    </vehicle>
    <vehicle id="147" depart="147.00">
        <route edges="306 497 -351 -324 -192 184"/>
    </vehicle>
    <vehicle id="148" depart="148.00">
        <route edges="-4747 -4325 -2280 -2005 3251 3871 -3880 -2132 -1812 -997 -968 -956 -667 -15 -3 11 1081 -1081"/>
    </vehicle>
    <vehicle id="149" depart="149.00">
        <route edges="-1806 -690 676 1239 1559 2616 4319 4741"/>
    </vehicle>
    <vehicle id="150" depart="150.00">
        <route edges="4743 -4325 -2280 -2005 -1804 1800 -676 -534 -430 -346 -304 -181 183"/>
    </vehicle>
    <vehicle id="151" depart="151.00">
        <route edges="40 64 332 2999 -2479 -2163 2163"/>
    </vehicle>
    <vehicle id="152" depart="152.00">
        <route edges="-2461 -2157 2163 2479 -2999 -332 -64 68 192 328 356 1575 1822 2142 2413 -2413"/>
    </vehicle>
    <vehicle id="153" depart="153.00">
        <route edges="-3745 -3033 -1273 1129 56 -42 40 68 192 324 351 502 548 2728 4761 4796"/>
    </vehicle>
    <vehicle id="154" depart="154.00">
        <route edges="354 -354 360 3511 4701"/>
    </vehicle>
    <vehicle id="155" depart="155.00">
        <route edges="4729 -4734 -4313 1796 -1555 1561 1804 3251 -3251"/>
    </vehicle>
    <vehicle id="156" depart="156.00">
        <route edges="-3385 -2397 -2140 2142 -2142"/>
    </vehicle>
    <vehicle id="157" depart="157.00">
        <route edges="3496 -4054 -3484 3472 -3890 3892 -4582 4592 -4719 -4309 -3054 -1690 -1151 -1026 1056 1796 1798 2616 4319 4741"/>
    </vehicle>
    <vehicle id="158" depart="158.00">
        <route edges="-4721 4727 -4762 -2728 -548 -502 -351 -324 -192 -68 64 332 2999 -2479 2497"/>
    </vehicle>
    <vehicle id="159" depart="159.00">
        <route edges="-2477 2479 3021 -339 -7 3 15 520 -460 430 534"/>
    </vehicle>
    <vehicle id="160" depart="160.00">
        <route edges="4313 4734 -4729 -4311 -4303 4309 4727 -4762 -2728 -548 -502 -351 -324 -192 -68 70"/>
    </vehicle>
    <vehicle id="161" depart="161.00">
        <route edges="374 3586 -3586 -374 -184 192 324 -322 304 346 430 534 676 1239 1559 2616 4319 4739"/>
    </vehicle>
    <vehicle id="162" depart="162.00">
        <route edges="-1151 1151 1690 3054 4309 4727 -4762 -2728 -548 550 -655 -356 354 4165 -4161 -3505 3505"/>
    </vehicle>
    <vehicle id="163" depart="163.00">
        <route edges="-3928 3892 -4582 -3884 -2726 -548 -502 -497 -544 -496 460 537"/>
    </vehicle>
    <vehicle id="164" depart="164.00">
        <route edges="360 3510 -2830 -2447 3516 -4703 -3719 4707"/>
    </vehicle>
    <vehicle id="165" depart="165.00">
        <route edges="374 3586 4703 -3516 -362"/>
    </vehicle>
    <vehicle id="166" depart="166.00">
        <route edges="351 -351 -324 -192 -68 64 332 2999 -2479 -2163 2157 -2157"/>
    </vehicle>
    <vehicle id="167" depart="167.00">
        <route edges="4325 -4325 -2280 -2005 -1804 1800 -676 -534 -430 496 544 497 502 550 -655 -356 360 3510 4179 4696"/>
    </vehicle>
    <vehicle id="168" depart="168.00">
        <route edges="-306 304 342 427"/>
    </vehicle>
    <vehicle id="169" depart="169.00">
        <route edges="-520 -15 13 -17 25 40 70 418 -418"/>
    </vehicle>
    <vehicle id="170" depart="170.00">
        <route edges="354 1573 1822 2140 2405 3399 -3399"/>
    </vehicle>
    <vehicle id="171" depart="171.00">
        <route edges="-1151 1151 1690 -1842 -691 -448 460 -520 -15 -3 11 1081 1273 3033 -3033"/>
    </vehicle>
    <vehicle id="172" depart="172.00">
        <route edges="-3890 -3399 -2405 -2140 -1822 -1575 -356 360 3510 -2830 -2447 3516 -4703 -3719 4707"/>
    </vehicle>
    <vehicle id="173" depart="173.00">
        <route edges="68 -68 -40 -25 17 -13 15 667 956 960 993 3266 -3874"/>
    </vehicle>
    <vehicle id="174" depart="174.00">
        <route edges="2142 -2142 -1822 -1575 655 -550 -502 -497 -544"/>
    </vehicle>
    <vehicle id="175" depart="175.00">
        <route edges="836 -948 -13 15 520 543 -674 673 676 -1800 1804"/>
    </vehicle>
    <vehicle id="176" depart="176.00">
        <route edges="548 2728 4762 -4727 -4309 -3054 -1690 -1151 -1026 -987 -1800 1804 2005 2280 -2280"/>
    </vehicle>
    <vehicle id="177" depart="177.00">
        <route edges="691 -691 -448 -346 -304 322 -324 -192 184 418 2896 -2896"/>
    </vehicle>
    <vehicle id="178" depart="178.00">
        <route edges="674 -543 -520 -15 13 -17 25 40 70 362 -362"/>
    </vehicle>
    <vehicle id="179" depart="179.00">
        <route edges="-2132 -1812 -997 -968 -956 -537 -460 448 697 -697"/>
    </vehicle>
    <vehicle id="180" depart="180.00">
        <route edges="3019 3724 3745 -4292"/>
    </vehicle>
    <vehicle id="181" depart="181.00">
        <route edges="1800 1239 1559"/>
    </vehicle>
    <vehicle id="182" depart="182.00">
        <route edges="-4592 -3884 -2392 -655 -356 354 2146"/>
    </vehicle>
    <vehicle id="183" depart="183.00">
        <route edges="-3400 -2409 2397 3381"/>
    </vehicle>
    <vehicle id="184" depart="184.00">
        <route edges="-1007 -948 -13 15 520 -460 430 526"/>
    </vehicle>
    <vehicle id="185" depart="185.00">
        <route edges="-997 -968 -956 -537 -460 496 544 497 502 548 2726 3883 -3400 3442"/>
    </vehicle>
    <vehicle id="186" depart="186.00">
        <route edges="306 497 -351 -324 -192 -68 64 332 2999 3021"/>
    </vehicle>
    <vehicle id="187" depart="187.00">
        <route edges="-4309 -3054 -1690 -1151 -1026 -987 -1800 1804 -1804"/>
    </vehicle>
    <vehicle id="188" depart="188.00">
        <route edges="2411 -2411 -2142 2140 2397 3385 4592 -4719 -4309 -3054 -1690 -1151 -1026 1056 1796 1798 2616 4319 4739 -4321"/>
    </vehicle>
    <vehicle id="189" depart="189.00">
        <route edges="-3871 -3251 -1804 1800 987 1026 1151 1690 3054 4309 4719 -4592 4592"/>
    </vehicle>
    <vehicle id="190" depart="190.00">
        <route edges="3 13 -832 -508 -183 181 322 -324 328 354 4165 -4165"/>
    </vehicle>
    <vehicle id="191" depart="191.00">
        <route edges="-3745 -3033 -1273 1129 56 -42 40 -59"/>
    </vehicle>
    <vehicle id="192" depart="192.00">
        <route edges="-4707 3719 -3586 -374 -70 -40"/>
    </vehicle>
    <vehicle id="193" depart="193.00">
        <route edges="-2392 -550 -502 -497 -544 -496 448 691 -672"/>
    </vehicle>
    <vehicle id="194" depart="194.00">
        <route edges="548 2728 4762 -4727 -4309 -3054 3038"/>
    </vehicle>
    <vehicle id="195" depart="195.00">
        <route edges="4739 -4321 -2280 -2005 3251 3871 -3880 -2132 -1812 -997 -968 -956 -667 -15 -3 7 339 -3021 -2479 2477"/>
    </vehicle>
    <vehicle id="196" depart="196.00">
        <route edges="-3718 -2457 420 -1831 1831"/>
    </vehicle>
    <vehicle id="197" depart="197.00">
        <route edges="-1007 -836 -508 -183 181 306 497 502 548 2726 3884 -3884"/>
    </vehicle>
    <vehicle id="198" depart="198.00">
        <route edges="-4751 -4325 -2280 -2005 3251 3871 -3880 -2132 -1812 -997 -968 -956 -667 -15 -3 11 1081 1265 1589 1837 2157"/>
    </vehicle>
    <vehicle id="199" depart="199.00">
        <route edges="2386 -2386 2093 -2007 -1806 -690 676 987 1024"/>
    </vehicle>
    <vehicle id="200" depart="200.00">
        <route edges="-4844 -4671 -4582 -3884 -2726 -548 -502 -497 -544 -496 460 537 956 960 993 3266 -3266"/>
    </vehicle>
    <vehicle id="201" depart="201.00">
        <route edges="-544 544 497 502 548 2726 3884 4582 4671 4830"/>
    </vehicle>
    <vehicle id="202" depart="202.00">
        <route edges="354 4165 -4161 -3505 -2824"/>
    </vehicle>
    <vehicle id="203" depart="203.00">
        <route edges="-1831 1831 -420 -332 -64 68 192 328 356 1575"/>
    </vehicle>
    <vehicle id="204" depart="204.00">
        <route edges="2007 -2007 -4754 -4469"/>
    </vehicle>
    <vehicle id="205" depart="205.00">
        <route edges="3874 -3266 -993 -960 -956 -537 -460 496 544 497 502 550 -655 -356 356"/>
    </vehicle>
    <vehicle id="206" depart="206.00">
        <route edges="2443 3507 -3503 -2824 -2439 -2142 2140 2397 3385 -3385"/>
    </vehicle>
    <vehicle id="207" depart="207.00">
        <route edges="-3 3 15 520 -460 448 691 1842 -1690 -1151 1233 -1233"/>
    </vehicle>
    <vehicle id="208" depart="208.00">
        <route edges="-3371 -2745 1247 -948 -13 -3 11"/>
    </vehicle>
    <vehicle id="209" depart="209.00">
        <route edges="420 -339 -7 3 15 667 956 968 997 1812 -2007 -1806"/>
    </vehicle>
    <vehicle id="210" depart="210.00">
        <route edges="-4734 4734 -4729 -4311 -4303 4309 4727 -4762 -2728 2728"/>
    </vehicle>
    <vehicle id="211" depart="211.00">
        <route edges="-2896 -418 -70 -40 -25 17 -13 15 667 956 960 993 2386 3256"/>
    </vehicle>
    <vehicle id="212" depart="212.00">
        <route edges="-670 -526 -430 -346 -304 322 -324 328 354 2146 2443 3507 -3503"/>
    </vehicle>
    <vehicle id="213" depart="213.00">
        <route edges="2392 -2726 2728 4762 -4727 -4309 -3054 -1690 -1151 -1026"/>
    </vehicle>
    <vehicle id="214" depart="214.00">
        <route edges="3256 3874 -3266 -993 -960 -956 -667 -15 -3 11 1081 1273 3033 3745"/>
    </vehicle>
    <vehicle id="215" depart="215.00">
        <route edges="-2093 2093 -2007 -1806 -690 676 -676"/>
    </vehicle>
    <vehicle id="216" depart="216.00">
        <route edges="-2805 -2411 -2142 -1822 -1575 655 -550 -502 -497 -544 -496 430 526 672"/>
    </vehicle>
    <vehicle id="217" depart="217.00">
        <route edges="-832 -508 -183 181 306 497 502 550 -655 1575 -1575"/>
    </vehicle>
    <vehicle id="218" depart="218.00">
        <route edges="-3385 3385 4582 4593"/>
    </vehicle>
    <vehicle id="219" depart="219.00">
        <route edges="-508 -183 181 306 497 502 550 -655 1575 1822 2142 2413 2819 3484 4054"/>
    </vehicle>
    <vehicle id="220" depart="220.00">
        <route edges="2439 -2439 -2142 -1822 -1575 655 -550 -502 -497 -544 -496 460 537 956"/>
    </vehicle>
    <vehicle id="221" depart="221.00">
        <route edges="1690 3054 4309 4727 -4762 -2728 -548 550 -655 655"/>
    </vehicle>
    <vehicle id="222" depart="222.00">
        <route edges="4703 -4703 -3719 -3003 2999 -2479 -2163 2157 2469"/>
    </vehicle>
    <vehicle id="223" depart="223.00">
        <route edges="3 15 520 -460 448 691 1842 -1690 -1151 1233 1450"/>
    </vehicle>
    <vehicle id="224" depart="224.00">
        <route edges="3892 -4582 -3884 -2726 -548 -502 -351 -324 -192 -68 64 332 420 -1831 1831"/>
    </vehicle>