<?xml version="1.0" encoding="UTF-8"?>

<!-- generated on 2024-02-14 10:31:49.133130 by randomTrips.py UNKNOWN
<configuration>
    <net-file value="randnet_1.net.xml"/>
    <end value="10.0"/>
</configuration>
-->

<routes xmlns:xsi="http://www.w3.org/2001/XMLSchema-instance" xsi:noNamespaceSchemaLocation="http://sumo.dlr.de/xsd/routes_file.xsd">
    <trip id="0" depart="0.00" from="2140" to="-1239"/>
    <trip id="1" depart="1.00" from="-3505" to="-3385"/>
    <trip id="2" depart="2.00" from="3038" to="3035"/>
    <trip id="3" depart="3.00" from="4703" to="-1842"/>
    <trip id="4" depart="4.00" from="-4741" to="-1265"/>
    <trip id="5" depart="5.00" from="-304" to="1450"/>
    <trip id="6" depart="6.00" from="-1233" to="-304"/>
    <trip id="7" depart="7.00" from="2163" to="183"/>
    <trip id="8" depart="8.00" from="-3054" to="2392"/>
    <trip id="9" depart="9.00" from="3724" to="-1056"/>
</routes>
