<?xml version="1.0" encoding="UTF-8"?>

<!-- generated on 2024-02-13 11:28:25.210745 by randomTrips.py UNKNOWN
<configuration>
    <net-file value="/Users/cianmurphy/code_directories/final_year_project/Experiments/gridnet_1/gridnet_1.net.xml"/>
    <end value="10.0"/>
</configuration>
-->

<routes xmlns:xsi="http://www.w3.org/2001/XMLSchema-instance" xsi:noNamespaceSchemaLocation="http://sumo.dlr.de/xsd/routes_file.xsd">
    <trip id="10" depart="0.00" from="G3G2" to="A3A4"/>
    <trip id="11" depart="1.00" from="C8C9" to="C3D3"/>
    <trip id="12" depart="2.00" from="H2H3" to="G6G7"/>
    <trip id="13" depart="3.00" from="I7H7" to="B1A1"/>
    <trip id="14" depart="4.00" from="E2E3" to="A3B3"/>
    <trip id="15" depart="5.00" from="C3C2" to="F0F1"/>
    <trip id="16" depart="6.00" from="A3A4" to="C1C2"/>
    <trip id="17" depart="7.00" from="G4F4" to="F4F3"/>
    <trip id="18" depart="8.00" from="C3C4" to="F8F7"/>
    <trip id="19" depart="9.00" from="H9G9" to="A1A0"/>
</routes>
