<?xml version="1.0" encoding="UTF-8"?>

<!-- generated on 2024-01-15 16:06:12 by Eclipse SUMO netedit Version 1.18.0
<configuration xmlns:xsi="http://www.w3.org/2001/XMLSchema-instance" xsi:noNamespaceSchemaLocation="http://sumo.dlr.de/xsd/neteditConfiguration.xsd">

    <input>
        <sumo-net-file value="/Users/cianmurphy/code_directories/final_year_project/Network1/net1.net.xml"/>
    </input>

    <output>
        <output-file value="/Users/cianmurphy/code_directories/final_year_project/Network1/net1.net.xml"/>
    </output>

    <processing>
        <geometry.min-radius.fix.railways value="false"/>
        <geometry.max-grade.fix value="false"/>
        <offset.disable-normalization value="true"/>
        <lefthand value="0"/>
    </processing>

    <junctions>
        <no-turnarounds value="true"/>
        <junctions.corner-detail value="5"/>
        <junctions.limit-turn-speed value="5.50"/>
        <rectangular-lane-cut value="0"/>
    </junctions>

    <pedestrian>
        <walkingareas value="0"/>
    </pedestrian>

</configuration>
-->

<net version="1.16" junctionCornerDetail="5" limitTurnSpeed="5.50" xmlns:xsi="http://www.w3.org/2001/XMLSchema-instance" xsi:noNamespaceSchemaLocation="http://sumo.dlr.de/xsd/net_file.xsd">

    <location netOffset="0.00,0.00" convBoundary="-149.46,-97.12,286.20,164.23" origBoundary="-10000000000.00,-10000000000.00,10000000000.00,10000000000.00" projParameter="!"/>

    <edge id=":J0_0" function="internal">
        <lane id=":J0_0_0" index="0" speed="13.89" length="14.73" shape="-55.14,-1.43 -54.98,-16.16"/>
    </edge>
    <edge id=":J0_1" function="internal">
        <lane id=":J0_1_0" index="0" speed="7.93" length="4.37" shape="-55.14,-1.43 -54.67,-5.36 -54.46,-5.72"/>
    </edge>
    <edge id=":J0_6" function="internal">
        <lane id=":J0_6_0" index="0" speed="7.93" length="9.99" shape="-54.46,-5.72 -53.04,-8.15 -50.27,-9.78 -46.34,-10.27"/>
    </edge>
    <edge id=":J0_2" function="internal">
        <lane id=":J0_2_0" index="0" speed="6.42" length="9.04" shape="-46.40,-7.07 -48.87,-6.76 -50.62,-5.73 -51.64,-3.98 -51.94,-1.51"/>
    </edge>
    <edge id=":J0_3" function="internal">
        <lane id=":J0_3_0" index="0" speed="7.97" length="14.34" shape="-46.40,-7.07 -50.31,-7.70 -53.04,-9.43 -54.59,-12.25 -54.98,-16.16"/>
    </edge>
    <edge id=":J0_4" function="internal">
        <lane id=":J0_4_0" index="0" speed="6.47" length="9.08" shape="-51.78,-16.01 -51.54,-13.54 -50.55,-11.76 -48.82,-10.67 -46.34,-10.27"/>
    </edge>
    <edge id=":J0_5" function="internal">
        <lane id=":J0_5_0" index="0" speed="13.89" length="14.51" shape="-51.78,-16.01 -51.94,-1.51"/>
    </edge>
    <edge id=":J1_0" function="internal">
        <lane id=":J1_0_0" index="0" speed="9.77" length="21.41" shape="-38.86,133.96 -44.60,133.18 -48.75,130.71 -51.30,126.55 -52.26,120.72"/>
    </edge>
    <edge id=":J1_1" function="internal">
        <lane id=":J1_1_0" index="0" speed="7.44" length="9.29" shape="-38.86,133.96 -44.87,133.31 -47.46,131.37"/>
    </edge>
    <edge id=":J1_6" function="internal">
        <lane id=":J1_6_0" index="0" speed="7.44" length="9.93" shape="-47.46,131.37 -47.64,131.23 -47.17,127.73 -43.46,122.79"/>
    </edge>
    <edge id=":J1_2" function="internal">
        <lane id=":J1_2_0" index="0" speed="5.53" length="9.85" shape="-41.13,124.99 -43.06,127.54 -43.32,129.35 -41.94,130.43 -38.89,130.76"/>
    </edge>
    <edge id=":J1_3" function="internal">
        <lane id=":J1_3_0" index="0" speed="7.43" length="19.38" shape="-41.13,124.99 -45.86,129.00 -49.29,129.62 -51.42,126.86 -52.26,120.72"/>
    </edge>
    <edge id=":J1_4" function="internal">
        <lane id=":J1_4_0" index="0" speed="5.47" length="9.76" shape="-49.06,120.64 -48.64,123.73 -47.56,125.12 -45.84,124.81 -43.46,122.79"/>
    </edge>
    <edge id=":J1_5" function="internal">
        <lane id=":J1_5_0" index="0" speed="8.59" length="16.31" shape="-49.06,120.64 -48.33,125.10 -46.40,128.27 -43.25,130.16 -38.89,130.76"/>
    </edge>
    <edge id=":J10_0" function="internal">
        <lane id=":J10_0_0" index="0" speed="5.46" length="10.40" shape="211.65,-79.15 209.46,-81.83 207.85,-82.48 206.80,-81.08 206.33,-77.66"/>
    </edge>
    <edge id=":J10_1" function="internal">
        <lane id=":J10_1_0" index="0" speed="8.41" length="17.52" shape="211.65,-79.15 208.25,-83.05 204.68,-84.81 200.96,-84.44 197.06,-81.93"/>
    </edge>
    <edge id=":J10_2" function="internal">
        <lane id=":J10_2_0" index="0" speed="13.17" length="22.56" shape="211.65,-79.15 207.78,-83.84 203.35,-87.16 198.35,-89.12 192.80,-89.71"/>
    </edge>
    <edge id=":J10_3" function="internal">
        <lane id=":J10_3_0" index="0" speed="13.89" length="25.75" shape="192.76,-92.91 199.13,-92.24 204.84,-90.02 209.91,-86.25 214.31,-80.94"/>
    </edge>
    <edge id=":J10_4" function="internal">
        <lane id=":J10_4_0" index="0" speed="9.97" length="8.04" shape="192.76,-92.91 198.94,-92.04 200.44,-91.05"/>
    </edge>
    <edge id=":J10_5" function="internal">
        <lane id=":J10_5_0" index="0" speed="7.48" length="9.24" shape="192.76,-92.91 199.32,-92.32 201.49,-90.81"/>
    </edge>
    <edge id=":J10_12" function="internal">
        <lane id=":J10_12_0" index="0" speed="9.97" length="15.54" shape="200.44,-91.05 203.26,-89.21 205.73,-84.41 206.33,-77.66"/>
    </edge>
    <edge id=":J10_13" function="internal">
        <lane id=":J10_13_0" index="0" speed="7.48" length="11.04" shape="201.49,-90.81 202.23,-90.29 201.48,-86.83 197.06,-81.93"/>
    </edge>
    <edge id=":J10_6" function="internal">
        <lane id=":J10_6_0" index="0" speed="5.46" length="9.98" shape="194.92,-84.31 197.10,-86.72 197.47,-88.42 196.04,-89.42 192.80,-89.71"/>
    </edge>
    <edge id=":J10_7" function="internal">
        <lane id=":J10_7_0" index="0" speed="9.61" length="23.23" shape="194.92,-84.31 200.14,-87.70 205.11,-88.27 209.84,-86.02 214.31,-80.94"/>
    </edge>
    <edge id=":J10_8" function="internal">
        <lane id=":J10_8_0" index="0" speed="7.75" length="21.11" shape="194.92,-84.31 200.19,-87.99 203.85,-88.11 205.89,-84.67 206.33,-77.66"/>
    </edge>
    <edge id=":J10_9" function="internal">
        <lane id=":J10_9_0" index="0" speed="5.93" length="11.66" shape="203.13,-77.79 202.91,-81.79 201.83,-83.81 199.88,-83.86 197.06,-81.93"/>
    </edge>
    <edge id=":J10_10" function="internal">
        <lane id=":J10_10_0" index="0" speed="8.82" length="18.21" shape="203.13,-77.79 202.68,-83.07 200.80,-86.81 197.51,-89.03 192.80,-89.71"/>
    </edge>
    <edge id=":J10_11" function="internal">
        <lane id=":J10_11_0" index="0" speed="7.60" length="21.83" shape="203.13,-77.79 204.13,-84.99 206.32,-87.91 209.71,-86.56 214.31,-80.94"/>
    </edge>
    <edge id=":J11_0" function="internal">
        <lane id=":J11_0_0" index="0" speed="6.14" length="6.40" shape="286.15,26.33 286.90,27.85 287.08,29.34 286.70,30.79 285.74,32.20"/>
    </edge>
    <edge id=":J11_1" function="internal">
        <lane id=":J11_1_0" index="0" speed="3.94" length="2.13" shape="283.36,30.07 283.67,29.60 283.80,29.11 283.74,28.62 283.49,28.11"/>
    </edge>
    <edge id=":J2_0" function="internal">
        <lane id=":J2_0_0" index="0" speed="13.89" length="17.63" shape="201.45,136.01 197.75,134.22 193.28,132.99 188.64,132.30 184.46,132.10"/>
    </edge>
    <edge id=":J2_1" function="internal">
        <lane id=":J2_1_0" index="0" speed="13.89" length="19.46" shape="201.45,136.01 197.90,133.35 193.87,129.94 189.95,126.39 186.76,123.29"/>
    </edge>
    <edge id=":J2_2" function="internal">
        <lane id=":J2_2_0" index="0" speed="12.40" length="4.55" shape="201.45,136.01 198.39,133.05 198.26,132.80"/>
    </edge>
    <edge id=":J2_3" function="internal">
        <lane id=":J2_3_0" index="0" speed="8.77" length="3.92" shape="201.45,136.01 198.77,133.16"/>
    </edge>
    <edge id=":J2_20" function="internal">
        <lane id=":J2_20_0" index="0" speed="12.40" length="16.01" shape="198.26,132.80 196.28,128.96 195.13,123.74 194.94,117.39"/>
    </edge>
    <edge id=":J2_21" function="internal">
        <lane id=":J2_21_0" index="0" speed="8.77" length="15.13" shape="198.77,133.16 198.63,133.00 198.01,129.27 199.62,124.83 203.43,119.67"/>
    </edge>
    <edge id=":J2_4" function="internal">
        <lane id=":J2_4_0" index="0" speed="7.46" length="13.46" shape="205.82,121.80 202.88,125.63 201.47,128.84 201.59,131.42 203.24,133.36"/>
    </edge>
    <edge id=":J2_5" function="internal">
        <lane id=":J2_5_0" index="0" speed="13.89" length="24.41" shape="205.82,121.80 201.07,126.27 195.93,129.47 190.39,131.41 184.46,132.10"/>
    </edge>
    <edge id=":J2_6" function="internal">
        <lane id=":J2_6_0" index="0" speed="9.64" length="22.12" shape="205.82,121.80 200.97,125.99 196.17,127.64 191.44,126.74 186.76,123.29"/>
    </edge>
    <edge id=":J2_7" function="internal">
        <lane id=":J2_7_0" index="0" speed="7.52" length="20.80" shape="205.82,121.80 200.79,126.40 197.30,127.20 195.35,124.20 194.94,117.39"/>
    </edge>
    <edge id=":J2_8" function="internal">
        <lane id=":J2_8_0" index="0" speed="5.46" length="10.11" shape="198.14,117.52 198.34,120.83 199.29,122.29 200.98,121.91 203.43,119.67"/>
    </edge>
    <edge id=":J2_9" function="internal">
        <lane id=":J2_9_0" index="0" speed="11.41" length="17.31" shape="198.14,117.52 198.27,123.03 199.16,127.51 200.82,130.95 203.24,133.36"/>
    </edge>
    <edge id=":J2_10" function="internal">
        <lane id=":J2_10_0" index="0" speed="10.14" length="22.53" shape="198.14,117.52 197.06,123.86 194.42,128.40 190.22,131.14 184.46,132.10"/>
    </edge>
    <edge id=":J2_11" function="internal">
        <lane id=":J2_11_0" index="0" speed="7.60" length="20.01" shape="198.14,117.52 197.17,124.12 194.95,127.28 191.48,127.00 186.76,123.29"/>
    </edge>
    <edge id=":J2_12" function="internal">
        <lane id=":J2_12_0" index="0" speed="5.76" length="10.79" shape="189.04,121.05 191.48,122.92 193.27,122.93 194.43,121.09 194.94,117.39"/>
    </edge>
    <edge id=":J2_13" function="internal">
        <lane id=":J2_13_0" index="0" speed="8.44" length="16.72" shape="189.04,121.05 192.53,123.59 196.09,124.21 199.72,122.90 203.43,119.67"/>
    </edge>
    <edge id=":J2_14" function="internal">
        <lane id=":J2_14_0" index="0" speed="13.89" length="18.82" shape="189.04,121.05 192.15,124.08 195.90,127.49 199.77,130.76 203.24,133.36"/>
    </edge>
    <edge id=":J2_15" function="internal">
        <lane id=":J2_15_0" index="0" speed="7.41" length="5.06" shape="189.04,121.05 192.16,125.03"/>
    </edge>
    <edge id=":J2_22" function="internal">
        <lane id=":J2_22_0" index="0" speed="7.41" length="14.04" shape="192.16,125.03 192.78,125.83 193.27,129.27 190.50,131.36 184.46,132.10"/>
    </edge>
    <edge id=":J2_16" function="internal">
        <lane id=":J2_16_0" index="0" speed="5.48" length="9.69" shape="184.44,128.90 187.50,128.52 188.90,127.46 188.66,125.72 186.76,123.29"/>
    </edge>
    <edge id=":J2_17" function="internal">
        <lane id=":J2_17_0" index="0" speed="9.01" length="17.56" shape="184.44,128.90 188.85,128.15 192.08,125.98 194.11,122.39 194.94,117.39"/>
    </edge>
    <edge id=":J2_18" function="internal">
        <lane id=":J2_18_0" index="0" speed="13.89" length="21.75" shape="184.44,128.90 189.69,128.29 194.61,126.54 199.19,123.67 203.43,119.67"/>
    </edge>
    <edge id=":J2_19" function="internal">
        <lane id=":J2_19_0" index="0" speed="13.89" length="19.51" shape="184.44,128.90 188.90,129.18 194.16,130.06 199.26,131.48 203.24,133.36"/>
    </edge>
    <edge id=":J3_0" function="internal">
        <lane id=":J3_0_0" index="0" speed="5.52" length="9.80" shape="-43.06,-81.16 -45.49,-83.18 -47.28,-83.52 -48.42,-82.18 -48.92,-79.17"/>
    </edge>
    <edge id=":J3_1" function="internal">
        <lane id=":J3_1_0" index="0" speed="13.89" length="16.76" shape="-43.06,-81.16 -46.03,-83.94 -49.57,-86.57 -53.40,-88.60 -57.23,-89.54"/>
    </edge>
    <edge id=":J3_2" function="internal">
        <lane id=":J3_2_0" index="0" speed="7.42" length="19.24" shape="-43.06,-81.16 -46.79,-86.03 -47.25,-89.48 -44.42,-91.51 -38.31,-92.11"/>
    </edge>
    <edge id=":J3_3" function="internal">
        <lane id=":J3_3_0" index="0" speed="5.48" length="9.72" shape="-38.35,-88.91 -41.44,-88.61 -42.87,-87.58 -42.64,-85.84 -40.75,-83.38"/>
    </edge>
    <edge id=":J3_4" function="internal">
        <lane id=":J3_4_0" index="0" speed="8.63" length="16.28" shape="-38.35,-88.91 -42.81,-88.36 -46.05,-86.54 -48.09,-83.48 -48.92,-79.17"/>
    </edge>
    <edge id=":J3_5" function="internal">
        <lane id=":J3_5_0" index="0" speed="13.89" length="18.88" shape="-38.35,-88.91 -57.23,-89.54"/>
    </edge>
    <edge id=":J3_6" function="internal">
        <lane id=":J3_6_0" index="0" speed="13.89" length="18.72" shape="-57.02,-92.73 -38.31,-92.11"/>
    </edge>
    <edge id=":J3_7" function="internal">
        <lane id=":J3_7_0" index="0" speed="13.89" length="3.25" shape="-57.02,-92.73 -53.88,-91.90"/>
    </edge>
    <edge id=":J3_8" function="internal">
        <lane id=":J3_8_0" index="0" speed="8.95" length="3.03" shape="-57.02,-92.73 -54.10,-91.91"/>
    </edge>
    <edge id=":J3_12" function="internal">
        <lane id=":J3_12_0" index="0" speed="13.89" length="15.78" shape="-53.88,-91.90 -52.86,-91.64 -48.32,-89.28 -44.06,-86.31 -40.75,-83.38"/>
    </edge>
    <edge id=":J3_13" function="internal">
        <lane id=":J3_13_0" index="0" speed="8.95" length="14.71" shape="-54.10,-91.91 -53.26,-91.67 -50.65,-89.06 -49.21,-84.89 -48.92,-79.17"/>
    </edge>
    <edge id=":J3_9" function="internal">
        <lane id=":J3_9_0" index="0" speed="7.66" length="12.71" shape="-52.12,-79.31 -52.27,-83.65 -53.17,-86.80 -54.82,-88.76 -57.23,-89.54"/>
    </edge>
    <edge id=":J3_10" function="internal">
        <lane id=":J3_10_0" index="0" speed="9.81" length="21.32" shape="-52.12,-79.31 -51.03,-84.98 -48.37,-89.00 -44.13,-91.38 -38.31,-92.11"/>
    </edge>
    <edge id=":J3_11" function="internal">
        <lane id=":J3_11_0" index="0" speed="7.43" length="19.11" shape="-52.12,-79.31 -51.15,-85.25 -48.93,-87.90 -45.47,-87.28 -40.75,-83.38"/>
    </edge>
    <edge id=":J4_0" function="internal">
        <lane id=":J4_0_0" index="0" speed="7.17" length="9.71" shape="37.20,-6.00 34.82,-5.47 33.03,-4.22 31.82,-2.24 31.19,0.45"/>
    </edge>
    <edge id=":J4_1" function="internal">
        <lane id=":J4_1_0" index="0" speed="13.89" length="18.54" shape="37.20,-6.00 18.66,-5.81"/>
    </edge>
    <edge id=":J4_2" function="internal">
        <lane id=":J4_2_0" index="0" speed="13.22" length="4.52" shape="37.20,-6.00 33.41,-6.36 32.74,-6.62"/>
    </edge>
    <edge id=":J4_12" function="internal">
        <lane id=":J4_12_0" index="0" speed="13.22" length="14.20" shape="32.74,-6.62 29.47,-7.90 25.38,-10.62 21.13,-14.52"/>
    </edge>
    <edge id=":J4_3" function="internal">
        <lane id=":J4_3_0" index="0" speed="12.23" length="15.96" shape="23.43,-16.74 27.14,-13.30 30.64,-10.89 33.92,-9.52 37.00,-9.19"/>
    </edge>
    <edge id=":J4_4" function="internal">
        <lane id=":J4_4_0" index="0" speed="13.35" length="19.45" shape="23.43,-16.74 27.16,-12.29 29.70,-7.95 31.04,-3.70 31.19,0.45"/>
    </edge>
    <edge id=":J4_5" function="internal">
        <lane id=":J4_5_0" index="0" speed="7.42" length="19.32" shape="23.43,-16.74 27.19,-11.84 27.65,-8.39 24.81,-6.38 18.66,-5.81"/>
    </edge>
    <edge id=":J4_6" function="internal">
        <lane id=":J4_6_0" index="0" speed="5.47" length="9.74" shape="18.72,-9.01 21.82,-9.29 23.25,-10.31 23.02,-12.05 21.13,-14.52"/>
    </edge>
    <edge id=":J4_7" function="internal">
        <lane id=":J4_7_0" index="0" speed="13.89" length="18.28" shape="18.72,-9.01 37.00,-9.19"/>
    </edge>
    <edge id=":J4_8" function="internal">
        <lane id=":J4_8_0" index="0" speed="8.67" length="5.54" shape="18.72,-9.01 24.22,-8.36"/>
    </edge>
    <edge id=":J4_13" function="internal">
        <lane id=":J4_13_0" index="0" speed="8.67" length="12.47" shape="24.22,-8.36 24.56,-8.32 28.58,-6.51 30.79,-3.59 31.19,0.45"/>
    </edge>
    <edge id=":J4_9" function="internal">
        <lane id=":J4_9_0" index="0" speed="7.33" length="12.57" shape="28.01,0.10 27.66,-2.41 25.98,-4.23 22.98,-5.37 18.66,-5.81"/>
    </edge>
    <edge id=":J4_10" function="internal">
        <lane id=":J4_10_0" index="0" speed="12.38" length="16.65" shape="28.01,0.10 27.85,-3.33 26.66,-6.91 24.42,-10.64 21.13,-14.52"/>
    </edge>
    <edge id=":J4_11" function="internal">
        <lane id=":J4_11_0" index="0" speed="8.56" length="14.25" shape="28.01,0.10 28.93,-3.78 30.74,-6.62 33.43,-8.42 37.00,-9.19"/>
    </edge>
    <edge id=":J5_0" function="internal">
        <lane id=":J5_0_0" index="0" speed="13.89" length="0.31" shape="55.15,-87.66 54.85,-87.66"/>
    </edge>
    <edge id=":J5_1" function="internal">
        <lane id=":J5_1_0" index="0" speed="13.89" length="0.21" shape="54.89,-90.86 55.11,-90.86"/>
    </edge>
    <edge id=":J7_0" function="internal">
        <lane id=":J7_0_0" index="0" speed="11.08" length="11.27" shape="31.38,55.37 28.16,55.49 25.69,55.86 23.51,56.90 21.17,58.97"/>
    </edge>
    <edge id=":J7_1" function="internal">
        <lane id=":J7_1_0" index="0" speed="7.77" length="14.75" shape="31.38,55.37 27.29,54.90 24.51,53.22 23.05,50.31 22.91,46.19"/>
    </edge>
    <edge id=":J7_2" function="internal">
        <lane id=":J7_2_0" index="0" speed="6.23" length="9.05" shape="26.09,46.54 26.18,49.07 27.07,50.85 28.78,51.89 31.29,52.17"/>
    </edge>
    <edge id=":J7_3" function="internal">
        <lane id=":J7_3_0" index="0" speed="13.89" length="13.63" shape="26.09,46.54 25.58,50.07 24.71,53.26 23.31,56.19 21.17,58.97"/>
    </edge>
    <edge id=":J7_4" function="internal">
        <lane id=":J7_4_0" index="0" speed="13.07" length="11.63" shape="18.84,56.77 20.85,54.29 21.96,51.98 22.53,49.43 22.91,46.19"/>
    </edge>
    <edge id=":J7_5" function="internal">
        <lane id=":J7_5_0" index="0" speed="12.16" length="3.21" shape="18.84,56.77 21.31,54.72"/>
    </edge>
    <edge id=":J7_6" function="internal">
        <lane id=":J7_6_0" index="0" speed="12.16" length="10.44" shape="21.31,54.72 21.53,54.54 24.48,53.17 27.72,52.44 31.29,52.17"/>
    </edge>
    <edge id=":J8_0" function="internal">
        <lane id=":J8_0_0" index="0" speed="10.29" length="10.35" shape="120.64,56.13 118.83,54.70 116.63,53.71 114.04,53.15 111.07,53.03"/>
    </edge>
    <edge id=":J8_1" function="internal">
        <lane id=":J8_1_0" index="0" speed="12.06" length="13.04" shape="120.64,56.13 118.51,53.46 117.22,50.70 116.59,47.66 116.41,44.19"/>
    </edge>
    <edge id=":J8_2" function="internal">
        <lane id=":J8_2_0" index="0" speed="10.96" length="10.70" shape="119.61,44.16 119.65,47.29 119.96,49.56 120.93,51.56 122.92,53.88"/>
    </edge>
    <edge id=":J8_3" function="internal">
        <lane id=":J8_3_0" index="0" speed="8.01" length="3.65" shape="119.61,44.16 119.12,47.78"/>
    </edge>
    <edge id=":J8_6" function="internal">
        <lane id=":J8_6_0" index="0" speed="8.01" length="10.32" shape="119.12,47.78 119.10,47.95 117.50,50.68 114.83,52.38 111.07,53.03"/>
    </edge>
    <edge id=":J8_4" function="internal">
        <lane id=":J8_4_0" index="0" speed="6.51" length="8.89" shape="110.97,49.83 113.37,49.42 115.07,48.34 116.08,46.60 116.41,44.19"/>
    </edge>
    <edge id=":J8_5" function="internal">
        <lane id=":J8_5_0" index="0" speed="11.47" length="12.98" shape="110.97,49.83 114.62,50.00 117.83,50.73 120.60,52.02 122.92,53.88"/>
    </edge>
    <edge id=":J9_0" function="internal">
        <lane id=":J9_0_0" index="0" speed="6.39" length="9.04" shape="116.04,-5.18 115.66,-7.65 114.58,-9.36 112.80,-10.32 110.31,-10.52"/>
    </edge>
    <edge id=":J9_1" function="internal">
        <lane id=":J9_1_0" index="0" speed="11.44" length="13.42" shape="116.04,-5.18 116.30,-8.98 117.13,-12.28 118.55,-15.09 120.55,-17.40"/>
    </edge>
    <edge id=":J9_2" function="internal">
        <lane id=":J9_2_0" index="0" speed="10.26" length="10.71" shape="122.69,-15.02 121.16,-13.22 120.08,-10.99 119.43,-8.31 119.24,-5.20"/>
    </edge>
    <edge id=":J9_3" function="internal">
        <lane id=":J9_3_0" index="0" speed="13.61" length="13.45" shape="122.69,-15.02 119.89,-12.95 116.98,-11.63 113.83,-10.88 110.31,-10.52"/>
    </edge>
    <edge id=":J9_4" function="internal">
        <lane id=":J9_4_0" index="0" speed="12.55" length="11.39" shape="110.12,-13.71 113.33,-13.95 115.81,-14.42 118.06,-15.45 120.55,-17.40"/>
    </edge>
    <edge id=":J9_5" function="internal">
        <lane id=":J9_5_0" index="0" speed="7.91" length="3.74" shape="110.12,-13.71 113.85,-13.41"/>
    </edge>
    <edge id=":J9_6" function="internal">
        <lane id=":J9_6_0" index="0" speed="7.91" length="10.66" shape="113.85,-13.41 114.08,-13.39 116.92,-11.86 118.64,-9.14 119.24,-5.20"/>
    </edge>

    <edge id="-E0" from="J1" to="J0" priority="-1">
        <lane id="-E0_0" index="0" speed="13.89" length="122.18" shape="-52.26,120.72 -55.14,-1.43"/>
    </edge>
    <edge id="-E1" from="J2" to="J1" priority="-1">
        <lane id="-E1_0" index="0" speed="13.89" length="223.33" shape="184.46,132.10 -38.86,133.96"/>
    </edge>
    <edge id="-E12" from="J10" to="J9" priority="-1">
        <lane id="-E12_0" index="0" speed="13.89" length="100.04" shape="197.06,-81.93 122.69,-15.02"/>
    </edge>
    <edge id="-E13" from="J2" to="J10" priority="-1">
        <lane id="-E13_0" index="0" speed="13.89" length="195.35" shape="194.94,117.39 203.13,-77.79"/>
    </edge>
    <edge id="-E14" from="J11" to="J10" priority="-1">
        <lane id="-E14_0" index="0" speed="13.89" length="129.10" shape="283.49,28.11 211.65,-79.15"/>
    </edge>
    <edge id="-E15" from="J2" to="J11" priority="-1">
        <lane id="-E15_0" index="0" speed="13.89" length="120.07" shape="203.43,119.67 283.36,30.07"/>
    </edge>
    <edge id="-E16" from="J1" to="J7" priority="-1">
        <lane id="-E16_0" index="0" speed="13.89" length="90.77" shape="-43.46,122.79 18.84,56.77"/>
    </edge>
    <edge id="-E17" from="J4" to="J0" priority="-1">
        <lane id="-E17_0" index="0" speed="13.89" length="65.07" shape="18.66,-5.81 -46.40,-7.07"/>
    </edge>
    <edge id="-E18" from="J5" to="J10" priority="-1">
        <lane id="-E18_0" index="0" speed="13.89" length="137.67" shape="55.11,-90.86 192.76,-92.91"/>
    </edge>
    <edge id="-E2" from="J3" to="J0" priority="-1">
        <lane id="-E2_0" index="0" speed="13.89" length="63.22" shape="-48.92,-79.17 -51.78,-16.01"/>
    </edge>
    <edge id="-E23" from="J8" to="J7" priority="-1">
        <lane id="-E23_0" index="0" speed="13.89" length="79.72" shape="111.07,53.03 31.38,55.37"/>
    </edge>
    <edge id="-E24" from="J4" to="J9" priority="-1">
        <lane id="-E24_0" index="0" speed="13.89" length="73.26" shape="37.00,-9.19 110.12,-13.71"/>
    </edge>
    <edge id="-E3" from="J4" to="J3" priority="-1">
        <lane id="-E3_0" index="0" speed="13.89" length="92.52" shape="21.13,-14.52 -43.06,-81.16"/>
    </edge>
    <edge id="-E4" from="J5" to="J3" priority="-1">
        <lane id="-E4_0" index="0" speed="13.89" length="93.21" shape="54.85,-87.66 -38.35,-88.91"/>
    </edge>
    <edge id="-E6" from="J4" to="J7" priority="-1">
        <lane id="-E6_0" index="0" speed="13.89" length="46.37" shape="31.19,0.45 26.09,46.54"/>
    </edge>
    <edge id="-E8" from="J2" to="J8" priority="-1">
        <lane id="-E8_0" index="0" speed="13.89" length="94.24" shape="186.76,123.29 120.64,56.13"/>
    </edge>
    <edge id="-E9" from="J9" to="J8" priority="-1">
        <lane id="-E9_0" index="0" speed="13.89" length="49.37" shape="119.24,-5.20 119.61,44.16"/>
    </edge>
    <edge id="-end_e" from="J16" to="J2" priority="-1">
        <lane id="-end_e_0" index="0" speed="13.89" length="52.78" shape="245.19,165.56 201.45,136.01"/>
    </edge>
    <edge id="-start_e" from="J3" to="J17" priority="-1">
        <lane id="-start_e_0" index="0" speed="13.89" length="92.53" shape="-57.23,-89.54 -149.56,-95.52"/>
    </edge>
    <edge id="E0" from="J0" to="J1" priority="-1">
        <lane id="E0_0" index="0" speed="13.89" length="122.18" shape="-51.94,-1.51 -49.06,120.64"/>
    </edge>
    <edge id="E1" from="J1" to="J2" priority="-1">
        <lane id="E1_0" index="0" speed="13.89" length="223.33" shape="-38.89,130.76 184.44,128.90"/>
    </edge>
    <edge id="E12" from="J9" to="J10" priority="-1">
        <lane id="E12_0" index="0" speed="13.89" length="100.04" shape="120.55,-17.40 194.92,-84.31"/>
    </edge>
    <edge id="E13" from="J10" to="J2" priority="-1">
        <lane id="E13_0" index="0" speed="13.89" length="195.35" shape="206.33,-77.66 198.14,117.52"/>
    </edge>
    <edge id="E14" from="J10" to="J11" priority="-1">
        <lane id="E14_0" index="0" speed="13.89" length="129.10" shape="214.31,-80.94 286.15,26.33"/>
    </edge>
    <edge id="E15" from="J11" to="J2" priority="-1">
        <lane id="E15_0" index="0" speed="13.89" length="120.07" shape="285.74,32.20 205.82,121.80"/>
    </edge>
    <edge id="E16" from="J7" to="J1" priority="-1">
        <lane id="E16_0" index="0" speed="13.89" length="90.77" shape="21.17,58.97 -41.13,124.99"/>
    </edge>
    <edge id="E17" from="J0" to="J4" priority="-1">
        <lane id="E17_0" index="0" speed="13.89" length="65.07" shape="-46.34,-10.27 18.72,-9.01"/>
    </edge>
    <edge id="E18" from="J10" to="J5" priority="-1">
        <lane id="E18_0" index="0" speed="13.89" length="137.67" shape="192.80,-89.71 55.15,-87.66"/>
    </edge>
    <edge id="E2" from="J0" to="J3" priority="-1">
        <lane id="E2_0" index="0" speed="13.89" length="63.22" shape="-54.98,-16.16 -52.12,-79.31"/>
    </edge>
    <edge id="E23" from="J7" to="J8" priority="-1">
        <lane id="E23_0" index="0" speed="13.89" length="79.72" shape="31.29,52.17 110.97,49.83"/>
    </edge>
    <edge id="E24" from="J9" to="J4" priority="-1">
        <lane id="E24_0" index="0" speed="13.89" length="73.26" shape="110.31,-10.52 37.20,-6.00"/>
    </edge>
    <edge id="E3" from="J3" to="J4" priority="-1">
        <lane id="E3_0" index="0" speed="13.89" length="92.52" shape="-40.75,-83.38 23.43,-16.74"/>
    </edge>
    <edge id="E4" from="J3" to="J5" priority="-1">
        <lane id="E4_0" index="0" speed="13.89" length="93.21" shape="-38.31,-92.11 54.89,-90.86"/>
    </edge>
    <edge id="E6" from="J7" to="J4" priority="-1">
        <lane id="E6_0" index="0" speed="13.89" length="46.37" shape="22.91,46.19 28.01,0.10"/>
    </edge>
    <edge id="E8" from="J8" to="J2" priority="-1">
        <lane id="E8_0" index="0" speed="13.89" length="94.24" shape="122.92,53.88 189.04,121.05"/>
    </edge>
    <edge id="E9" from="J8" to="J9" priority="-1">
        <lane id="E9_0" index="0" speed="13.89" length="49.37" shape="116.41,44.19 116.04,-5.18"/>
    </edge>
    <edge id="end_e" from="J2" to="J16" priority="-1">
        <lane id="end_e_0" index="0" speed="13.89" length="52.78" shape="203.24,133.36 246.99,162.90"/>
    </edge>
    <edge id="start_e" from="J17" to="J3" priority="-1">
        <lane id="start_e_0" index="0" speed="13.89" length="92.53" shape="-149.36,-98.72 -57.02,-92.73"/>
    </edge>

    <junction id="J0" type="priority" x="-53.71" y="-8.81" incLanes="-E0_0 -E17_0 -E2_0" intLanes=":J0_0_0 :J0_6_0 :J0_2_0 :J0_3_0 :J0_4_0 :J0_5_0" shape="-56.74,-1.40 -50.34,-1.55 -49.95,-3.76 -49.41,-4.53 -48.64,-5.07 -47.65,-5.38 -46.43,-5.47 -46.31,-11.87 -48.54,-12.35 -49.31,-12.93 -49.83,-13.71 -50.13,-14.72 -50.18,-15.94 -56.58,-16.23">
        <request index="0" response="000000" foes="001000" cont="0"/>
        <request index="1" response="110000" foes="111000" cont="1"/>
        <request index="2" response="100000" foes="100000" cont="0"/>
        <request index="3" response="100011" foes="100011" cont="0"/>
        <request index="4" response="000000" foes="000010" cont="0"/>
        <request index="5" response="000000" foes="001110" cont="0"/>
    </junction>
    <junction id="J1" type="priority" x="-50.38" y="132.46" incLanes="-E1_0 E16_0 E0_0" intLanes=":J1_0_0 :J1_6_0 :J1_2_0 :J1_3_0 :J1_4_0 :J1_5_0" shape="-38.85,135.56 -38.90,129.16 -40.80,128.84 -41.17,128.41 -41.15,127.81 -40.75,127.04 -39.96,126.09 -44.62,121.69 -46.15,122.86 -46.70,122.87 -47.10,122.50 -47.35,121.74 -47.46,120.60 -53.86,120.75 -53.34,125.31 -52.03,129.04 -49.93,131.92 -47.03,133.97 -43.34,135.19">
        <request index="0" response="000000" foes="001000" cont="0"/>
        <request index="1" response="110000" foes="111000" cont="1"/>
        <request index="2" response="100000" foes="100000" cont="0"/>
        <request index="3" response="100011" foes="100011" cont="0"/>
        <request index="4" response="000000" foes="000010" cont="0"/>
        <request index="5" response="000000" foes="001110" cont="0"/>
    </junction>
    <junction id="J10" type="priority" x="205.31" y="-91.50" incLanes="-E14_0 -E18_0 E12_0 -E13_0" intLanes=":J10_0_0 :J10_1_0 :J10_2_0 :J10_3_0 :J10_12_0 :J10_13_0 :J10_6_0 :J10_7_0 :J10_8_0 :J10_9_0 :J10_10_0 :J10_11_0" shape="210.32,-78.26 215.64,-81.83 212.60,-85.76 209.26,-88.97 205.59,-91.45 201.62,-93.20 197.33,-94.22 192.73,-94.51 192.83,-88.11 194.72,-87.85 195.08,-87.49 195.06,-86.98 194.65,-86.31 193.85,-85.50 198.13,-80.74 200.14,-81.88 200.81,-81.67 201.27,-80.92 201.51,-79.65 201.53,-77.86 207.93,-77.59 208.27,-79.44 208.61,-79.76 209.07,-79.67 209.64,-79.17">
        <request index="0"  response="000000000000" foes="000100010000" cont="0"/>
        <request index="1"  response="000000000000" foes="111100110000" cont="0"/>
        <request index="2"  response="000000000000" foes="110011110000" cont="0"/>
        <request index="3"  response="000100000000" foes="100110000000" cont="0"/>