<?xml version="1.0" encoding="UTF-8"?>
<!-- generated on 2023-11-15 14:45:18 by Eclipse SUMO netedit Version 1.18.0
-->

<routes xmlns:xsi="http://www.w3.org/2001/XMLSchema-instance" xsi:noNamespaceSchemaLocation="http://sumo.dlr.de/xsd/routes_file.xsd">
    <!-- Routes -->
    <vType id="car" accel="0.8" decel="4.5" sigma="0.5" length="5" minGap="2.5" maxSpeed="10" guiShape="passenger"/>
</routes>