<?xml version="1.0" encoding="UTF-8"?>

<!-- generated on 2023-10-02 11:03:02 by Eclipse SUMO netedit Version 1.18.0
-->

<routes xmlns:xsi="http://www.w3.org/2001/XMLSchema-instance" xsi:noNamespaceSchemaLocation="http://sumo.dlr.de/xsd/routes_file.xsd">
    <!-- Routes -->
    <route id="r_0" edges="E0 E1"/>
    <!-- Vehicles, persons and containers (sorted by depart) -->
    <trip id="1" depart="0.00" from="E0" to="E0"/>
    <flow id="f_0" begin="0.00" color="blue" route="r_0" end="3600.00" vehsPerHour="1.00"/>
</routes>
